A sealed box is filled with fuel droplets that evaporate rapidly and burn.

&HEAD CHID='fuel_evaporation', TITLE='Fuel Evaporation Test, SVN $Revision$' / 

&MESH IJK=20,20,20, XB=0.0,1.0,0.0,1.0,0.0,1.0 / 

&TIME T_END=10.0 / 

&MISC SURF_DEFAULT='WALL', GVEC=0,0,0 /

cSURF ID='WALL', ADIABATIC=.TRUE. /
&MATL ID='WALL', CONDUCTIVITY=0.05,SPECIFIC_HEAT=1.,DENSITY=1000. /
&SURF ID='WALL', MATL_ID='WALL', THICKNESS=0.1 /
&SURF ID='BLOW_UP'  , VEL=0.5, POROUS=.TRUE. /
&SURF ID='BLOW_DOWN', VEL=-.5, POROUS=.TRUE. /

&REAC ID='HEPTANE'
      FYI='Heptane, C_7 H_16'
      C=7.
      H=16.
      CO_YIELD=0.006
      SOOT_YIELD=0.015 /

&PART ID='heptane drops', FUEL=.TRUE., VAPORIZATION_TEMPERATURE=98.,
      HEAT_OF_VAPORIZATION=316., SPECIFIC_HEAT=2.25, DENSITY=688.,
      QUANTITIES(1:2)='DROPLET_DIAMETER','DROPLET_TEMPERATURE',
      MASS_PER_VOLUME=0.02,NUMBER_INITIAL_DROPLETS=50000, DIAMETER=100., HEAT_OF_COMBUSTION=45000.,
      SAMPLING_FACTOR=1,MELTING_TEMPERATURE=-90. /

&OBST XB=0.6,0.9,0.4,0.7,0.5,0.5, SURF_ID='BLOW_UP',   OUTLINE=.TRUE. /
&OBST XB=0.1,0.4,0.3,0.6,0.5,0.5, SURF_ID='BLOW_DOWN', OUTLINE=.TRUE. /

&DUMP MASS_FILE=.TRUE. /

&SLCF PBY=0.5,QUANTITY='TEMPERATURE',VECTOR=.TRUE. /
&SLCF PBY=0.5,QUANTITY='DENSITY' /
&SLCF PBY=0.5,QUANTITY='DIVERGENCE' /
&SLCF PBY=0.5,QUANTITY='MIXTURE FRACTION' /
&SLCF PBY=0.5,QUANTITY='INTEGRATED INTENSITY' /
&SLCF PBY=0.5,QUANTITY='oxygen' /
&SLCF PBY=0.5,QUANTITY='PRESSURE' /
&SLCF PBY=0.5,QUANTITY='HRRPUV' /

&DEVC XYZ=0.5,0.5,0.5,QUANTITY='TEMPERATURE',ID='Temp' /
&DEVC XYZ=0.5,0.5,0.5,QUANTITY='DENSITY'    ,ID='dens' /
&DEVC XYZ=0.5,0.5,0.5,QUANTITY='PRESSURE'   ,ID='pres' /

&BNDF QUANTITY='HEAT_FLUX' / 
&BNDF QUANTITY='WALL_TEMPERATURE' / 

&TAIL /
