
 Fire Dynamics Simulator

 Compilation Date : Wed, 22 Aug 2012
 Version          : 6.0.0 Serial

 OpenMP Disabled

 SVN Revision No. : 12209

 Job TITLE        : Blasius boundary layer
 Job ID string    : blasius_16


 Grid Dimensions, Mesh     1

   Cells in the X Direction            24
   Cells in the Y Direction             1
   Cells in the Z Direction            16


 Physical Dimensions, Mesh     1

   Length (m)                       0.150
   Width  (m)                       0.010
   Height (m)                       0.300
   Initial Time Step (s)            0.031


 Miscellaneous Parameters

   Simulation Start Time (s)          0.0
   Simulation End Time (s)           10.0
   Ambient Temperature (C)          20.00


 Mass Fraction Transformation Matrix to Convert Species Mixtures (Columns) to Primitive Species (Rows)

                         AIR     
   AIR                   1.000000


 Primitive Species Information

   AIR                           
   Gas Species
   Molecular Weight (g/mol)            28.84852
   Ambient Density (kg/m^3)            1.199
   Enthalpy of Formation (J/kg)        0.00E+00


 Tracked (Lumped) Species Information

   AIR                           
   Background Species
   Molecular Weight (g/mol)            28.84852
   Ambient Density (kg/m^3)            1.199
   Initial Mass Fraction               1.000
   Enthalpy of Formation (J/kg)        0.00E+00

   Sub Species                    Mass Fraction     Mole Fraction
   AIR                            1.000000E+00      1.000000E+00
 
   Viscosity (kg/m/s)   Ambient (293 K):  1.00E-03
                                  500 K:  1.00E-03
                                 1000 K:  1.00E-03
                                 1500 K:  1.00E-03
   Therm. Cond. (W/m/K) Ambient (293 K):  1.44E+00
                                  500 K:  1.48E+00
                                 1000 K:  1.63E+00
                                 1500 K:  1.73E+00
   Spec. Heat (J/kg/K)  Ambient (293 K):  1.01E+03
                                  500 K:  1.03E+03
                                 1000 K:  1.14E+03
                                 1500 K:  1.21E+03
   Diff. Coeff. (m^2/s) Ambient (293 K):  2.00E-05
                                  500 K:  5.00E-05
                                 1000 K:  1.59E-04
                                 1500 K:  3.12E-04


 Material Information


 Surface Conditions

   0 INERT (DEFAULT)

   1 SLIP WALL

   2 NO SLIP WALL

   3 TOP

   4 OPEN
     Passive Vent to Atmosphere

   5 MIRROR
     Symmetry Plane

   6 INTERPOLATED

   7 PERIODIC

   8 HVAC

   9 MASSLESS PARTICLE

  10 DROPLET

  11 VEGETATION

  12 EVACUATION_OUTFLOW
     Normal Velocity (m/s)          0.000


 Device Coordinates

     1 Coords:     0.10     0.00     0.01, Make: null, ID: U0.1, Quantity: U-VELOCITY
     2 Coords:     0.10     0.00     0.03, Make: null, ID: U0.1, Quantity: U-VELOCITY
     3 Coords:     0.10     0.00     0.05, Make: null, ID: U0.1, Quantity: U-VELOCITY
     4 Coords:     0.10     0.00     0.07, Make: null, ID: U0.1, Quantity: U-VELOCITY
     5 Coords:     0.10     0.00     0.08, Make: null, ID: U0.1, Quantity: U-VELOCITY
     6 Coords:     0.10     0.00     0.10, Make: null, ID: U0.1, Quantity: U-VELOCITY
     7 Coords:     0.10     0.00     0.12, Make: null, ID: U0.1, Quantity: U-VELOCITY
     8 Coords:     0.10     0.00     0.14, Make: null, ID: U0.1, Quantity: U-VELOCITY
     9 Coords:     0.10     0.00     0.16, Make: null, ID: U0.1, Quantity: U-VELOCITY
    10 Coords:     0.10     0.00     0.18, Make: null, ID: U0.1, Quantity: U-VELOCITY
    11 Coords:     0.10     0.00     0.20, Make: null, ID: U0.1, Quantity: U-VELOCITY
    12 Coords:     0.10     0.00     0.22, Make: null, ID: U0.1, Quantity: U-VELOCITY
    13 Coords:     0.10     0.00     0.23, Make: null, ID: U0.1, Quantity: U-VELOCITY
    14 Coords:     0.10     0.00     0.25, Make: null, ID: U0.1, Quantity: U-VELOCITY
    15 Coords:     0.10     0.00     0.27, Make: null, ID: U0.1, Quantity: U-VELOCITY
    16 Coords:     0.10     0.00     0.29, Make: null, ID: U0.1, Quantity: U-VELOCITY


 Slice File Information, Mesh     1

   Sampling Interval (s)             0.010

   1 Nodes:   0  24   1   1   0  16, Quantity: PRESSURE
   2 Nodes:   0  24   1   1   0  16, Quantity: VELOCITY
   3 Nodes:   0  24   1   1   0  16, Quantity: U-VELOCITY
   4 Nodes:   0  24   1   1   0  16, Quantity: W-VELOCITY
 
 

 Run Time Diagnostics

       Time Step       1   August 23, 2012  10:22:52
       Pressure Iterations:      1
       Maximum Velocity Error:  0.00E+00 on Mesh   1 at (   0   0   0)
       ----------------------------------------------
       CPU/step:     0.065 s, Total CPU:      0.07 s
       Time step:  0.00556 s, Total time:     0.01 s
       Max CFL number:  0.89E+00 at ( 12,  1,  2)
       Max divergence:  0.78E-13 at ( 24,  1, 15)
       Min divergence: -0.51E-13 at ( 21,  1,  6)
       Max VN  number:  0.38E+00 at ( 24,  1, 16)
 
       Time Step       2   August 23, 2012  10:22:52
       Pressure Iterations:      1
       Maximum Velocity Error:  0.16E-16 on Mesh   1 at (   9   1  17)
       ----------------------------------------------
       CPU/step:     0.035 s, Total CPU:      0.10 s
       Time step:  0.00556 s, Total time:     0.01 s
       Max CFL number:  0.89E+00 at ( 13,  1,  2)
       Max divergence:  0.92E-13 at ( 24,  1,  6)
       Min divergence: -0.77E-13 at ( 11,  1,  5)
       Max VN  number:  0.38E+00 at ( 24,  1, 15)
 
       Time Step       3   August 23, 2012  10:22:52
       Pressure Iterations:      1
       Maximum Velocity Error:  0.23E-16 on Mesh   1 at (   5   1  17)
       ----------------------------------------------
       CPU/step:     0.035 s, Total CPU:      0.14 s
       Time step:  0.00556 s, Total time:     0.02 s
       Max CFL number:  0.89E+00 at ( 13,  1,  2)
       Max divergence:  0.13E-12 at ( 24,  1,  7)
       Min divergence: -0.88E-13 at ( 15,  1,  3)
       Max VN  number:  0.38E+00 at ( 22,  1,  7)
 
       Time Step       4   August 23, 2012  10:22:52
       Pressure Iterations:      1
       Maximum Velocity Error:  0.28E-16 on Mesh   1 at (   5   1  17)
       ----------------------------------------------
       CPU/step:     0.036 s, Total CPU:      0.17 s
       Time step:  0.00556 s, Total time:     0.02 s
       Max CFL number:  0.89E+00 at ( 14,  1,  2)
       Max divergence:  0.17E-12 at ( 24,  1,  2)
       Min divergence: -0.12E-12 at ( 15,  1, 15)
       Max VN  number:  0.38E+00 at ( 24,  1,  7)
 
       Time Step       5   August 23, 2012  10:22:52
       Pressure Iterations:      1
       Maximum Velocity Error:  0.29E-16 on Mesh   1 at (   5   1  17)
       ----------------------------------------------
       CPU/step:     0.037 s, Total CPU:      0.21 s
       Time step:  0.00556 s, Total time:     0.03 s
       Max CFL number:  0.90E+00 at ( 14,  1,  2)
       Max divergence:  0.22E-12 at ( 24,  1, 14)
       Min divergence: -0.13E-12 at (  7,  1,  7)
       Max VN  number:  0.38E+00 at ( 24,  1,  8)
 
       Time Step       6   August 23, 2012  10:22:52
       Pressure Iterations:      1
       Maximum Velocity Error:  0.26E-16 on Mesh   1 at (  19   1  17)
       ----------------------------------------------
       CPU/step:     0.037 s, Total CPU:      0.25 s
       Time step:  0.00556 s, Total time:     0.03 s
       Max CFL number:  0.90E+00 at ( 19,  1,  3)
       Max divergence:  0.24E-12 at ( 24,  1, 15)
       Min divergence: -0.17E-12 at (  7,  1, 14)
       Max VN  number:  0.38E+00 at ( 24,  1,  6)
 
       Time Step       7   August 23, 2012  10:22:52
       Pressure Iterations:      1
       Maximum Velocity Error:  0.28E-16 on Mesh   1 at (  19   1  17)
       ----------------------------------------------
       CPU/step:     0.035 s, Total CPU:      0.28 s
       Time step:  0.00556 s, Total time:     0.04 s
       Max CFL number:  0.90E+00 at ( 20,  1,  3)
       Max divergence:  0.28E-12 at ( 24,  1, 15)
       Min divergence: -0.21E-12 at ( 19,  1, 15)
       Max VN  number:  0.38E+00 at ( 24,  1, 15)
 
       Time Step       8   August 23, 2012  10:22:52
       Pressure Iterations:      1
       Maximum Velocity Error:  0.27E-16 on Mesh   1 at (   7   1  17)
       ----------------------------------------------
       CPU/step:     0.036 s, Total CPU:      0.32 s
       Time step:  0.00556 s, Total time:     0.04 s
       Max CFL number:  0.90E+00 at ( 20,  1,  3)
       Max divergence:  0.28E-12 at ( 24,  1, 15)
       Min divergence: -0.22E-12 at ( 12,  1,  4)
       Max VN  number:  0.38E+00 at ( 24,  1, 15)
 
       Time Step       9   August 23, 2012  10:22:53
       Pressure Iterations:      1
       Maximum Velocity Error:  0.31E-16 on Mesh   1 at (  10   1  17)
       ----------------------------------------------
       CPU/step:     0.036 s, Total CPU:      0.35 s
       Time step:  0.00556 s, Total time:     0.05 s
       Max CFL number:  0.90E+00 at ( 21,  1,  3)
       Max divergence:  0.36E-12 at ( 24,  1, 15)
       Min divergence: -0.24E-12 at (  7,  1, 14)
       Max VN  number:  0.38E+00 at ( 24,  1, 15)
 
       Time Step      10   August 23, 2012  10:22:53
       Pressure Iterations:      1
       Maximum Velocity Error:  0.32E-16 on Mesh   1 at (  22   1  17)
       ----------------------------------------------
       CPU/step:     0.035 s, Total CPU:      0.39 s
       Time step:  0.00556 s, Total time:     0.06 s
       Max CFL number:  0.90E+00 at ( 21,  1,  3)
       Max divergence:  0.40E-12 at ( 24,  1, 15)
       Min divergence: -0.33E-12 at ( 23,  1, 15)
       Max VN  number:  0.38E+00 at ( 24,  1, 15)
 
       Time Step      20   August 23, 2012  10:22:53
       Pressure Iterations:      1
       Maximum Velocity Error:  0.47E-16 on Mesh   1 at (   4   1  17)
       ----------------------------------------------
       CPU/step:     0.037 s, Total CPU:      0.75 s
       Time step:  0.00556 s, Total time:     0.11 s
       Max CFL number:  0.91E+00 at ( 24,  1,  3)
       Max divergence:  0.15E-10 at ( 16,  1, 14)
       Min divergence: -0.15E-10 at ( 17,  1, 14)
       Max VN  number:  0.38E+00 at ( 16,  1, 14)
 
       Time Step      30   August 23, 2012  10:22:53
       Pressure Iterations:      1
       Maximum Velocity Error:  0.69E-16 on Mesh   1 at (  22   1  17)
       ----------------------------------------------
       CPU/step:     0.035 s, Total CPU:      1.10 s
       Time step:  0.00556 s, Total time:     0.17 s
       Max CFL number:  0.91E+00 at ( 24,  0,  4)
       Max divergence:  0.15E-08 at ( 22,  1, 14)
       Min divergence: -0.16E-08 at ( 23,  1, 14)
       Max VN  number:  0.38E+00 at ( 22,  1, 14)
 
       Time Step      40   August 23, 2012  10:22:54
       Pressure Iterations:      1
       Maximum Velocity Error:  0.77E-16 on Mesh   1 at (  22   1  17)
       ----------------------------------------------
       CPU/step:     0.035 s, Total CPU:      1.45 s
       Time step:  0.00556 s, Total time:     0.22 s
       Max CFL number:  0.90E+00 at ( 24,  0,  5)
       Max divergence:  0.39E-07 at ( 23,  1, 13)
       Min divergence: -0.44E-07 at ( 23,  1, 14)
       Max VN  number:  0.38E+00 at ( 24,  1, 14)
 
       Time Step      50   August 23, 2012  10:22:54
       Pressure Iterations:      1
       Maximum Velocity Error:  0.85E-16 on Mesh   1 at (  16   1  17)
       ----------------------------------------------
       CPU/step:     0.035 s, Total CPU:      1.80 s
       Time step:  0.00556 s, Total time:     0.28 s
       Max CFL number:  0.89E+00 at ( 24,  0,  8)
       Max divergence:  0.49E-06 at ( 23,  1, 13)
       Min divergence: -0.45E-06 at ( 23,  1, 14)
       Max VN  number:  0.38E+00 at ( 23,  1, 13)
 
       Time Step      60   August 23, 2012  10:22:54
       Pressure Iterations:      1
       Maximum Velocity Error:  0.94E-16 on Mesh   1 at (  16   1  17)
       ----------------------------------------------
       CPU/step:     0.035 s, Total CPU:      2.15 s
       Time step:  0.00556 s, Total time:     0.33 s
       Max CFL number:  0.89E+00 at ( 24,  0, 11)
       Max divergence:  0.39E-05 at ( 23,  1, 13)
       Min divergence: -0.34E-05 at ( 23,  1, 12)
       Max VN  number:  0.38E+00 at ( 23,  1, 13)
 
       Time Step      70   August 23, 2012  10:22:55
       Pressure Iterations:      1
       Maximum Velocity Error:  0.10E-15 on Mesh   1 at (  16   1  17)
       ----------------------------------------------
       CPU/step:     0.035 s, Total CPU:      2.50 s
       Time step:  0.00556 s, Total time:     0.39 s
       Max CFL number:  0.89E+00 at ( 24,  0, 13)
       Max divergence:  0.26E-04 at ( 23,  1, 13)
       Min divergence: -0.26E-04 at ( 23,  1, 12)
       Max VN  number:  0.38E+00 at ( 24,  1, 12)
 
       Time Step      80   August 23, 2012  10:22:55
       Pressure Iterations:      1
       Maximum Velocity Error:  0.12E-15 on Mesh   1 at (  16   1  17)
       ----------------------------------------------
       CPU/step:     0.035 s, Total CPU:      2.84 s
       Time step:  0.00556 s, Total time:     0.44 s
       Max CFL number:  0.89E+00 at ( 24,  0,  0)
       Max divergence:  0.15E-03 at ( 23,  1, 13)
       Min divergence: -0.16E-03 at ( 23,  1, 12)
       Max VN  number:  0.38E+00 at ( 24,  1, 12)
 
       Time Step      90   August 23, 2012  10:22:55
       Pressure Iterations:      1
       Maximum Velocity Error:  0.14E-15 on Mesh   1 at (  16   1  17)
       ----------------------------------------------
       CPU/step:     0.035 s, Total CPU:      3.19 s
       Time step:  0.00556 s, Total time:     0.50 s
       Max CFL number:  0.89E+00 at ( 24,  0,  0)
       Max divergence:  0.86E-03 at ( 23,  1, 13)
       Min divergence: -0.94E-03 at ( 23,  1, 12)
       Max VN  number:  0.38E+00 at ( 24,  1, 12)
 
       Time Step     100   August 23, 2012  10:22:56
       Pressure Iterations:      1
       Maximum Velocity Error:  0.15E-15 on Mesh   1 at (  16   1  17)
       ----------------------------------------------
       CPU/step:     0.035 s, Total CPU:      3.55 s
       Time step:  0.00556 s, Total time:     0.56 s
       Max CFL number:  0.89E+00 at ( 24,  0,  0)
       Max divergence:  0.48E-02 at ( 23,  1, 13)
       Min divergence: -0.52E-02 at ( 23,  1, 12)
       Max VN  number:  0.38E+00 at ( 24,  1, 12)
 
       Time Step     200   August 23, 2012  10:23:00
       Pressure Iterations:      1
       Maximum Velocity Error:  0.97E-16 on Mesh   1 at (  16   1  17)
       ----------------------------------------------
       CPU/step:     0.035 s, Total CPU:      7.07 s
       Time step:  0.00500 s, Total time:     1.08 s
       Max CFL number:  0.81E+00 at ( 23,  0, 14)
       Max divergence:  0.12E+01 at ( 23,  1, 13)
       Min divergence: -0.13E+01 at ( 23,  1, 14)
       Max VN  number:  0.34E+00 at ( 24,  1, 14)
 
       Time Step     300   August 23, 2012  10:23:04
       Pressure Iterations:      1
       Maximum Velocity Error:  0.12E-15 on Mesh   1 at (  16   1  17)
       ----------------------------------------------
       CPU/step:     0.035 s, Total CPU:     10.56 s
       Time step:  0.00494 s, Total time:     1.59 s
       Max CFL number:  0.81E+00 at ( 23,  0, 14)
       Max divergence:  0.26E+01 at ( 23,  1, 15)
       Min divergence: -0.27E+01 at ( 23,  1, 14)
       Max VN  number:  0.34E+00 at ( 24,  1, 14)
 
       Time Step     400   August 23, 2012  10:23:07
       Pressure Iterations:      1
       Maximum Velocity Error:  0.14E-15 on Mesh   1 at (  23   1  17)
       ----------------------------------------------
       CPU/step:     0.035 s, Total CPU:     14.07 s
       Time step:  0.00489 s, Total time:     2.11 s
       Max CFL number:  0.89E+00 at ( 21,  0, 14)
       Max divergence:  0.15E+02 at ( 22,  1, 12)
       Min divergence: -0.16E+02 at ( 23,  1, 12)
       Max VN  number:  0.38E+00 at ( 22,  1, 12)
 
