&HEAD CHID='cone_1mesh', TITLE='Complex Geometry: Test grid pierced by cone, 1 mesh.' /

# 1 MESH:
&MESH IJK=5,5,12, XB=-1.5,1.5,-1.5,1.5,-2.0,6.0 /

&TIME T_END=1. /
&MISC DNS=.TRUE.,
      NOISE=.FALSE.,
      STRATIFICATION=.FALSE.,
      CONSTANT_SPECIFIC_HEAT_RATIO=.FALSE.,
      PROJECTION=.TRUE.,
      BAROCLINIC=.FALSE.
      CC_IBM=.TRUE.,
      DO_IMPLICIT_CCREGION=.FALSE./

&RADI RADIATION=.FALSE. /

# Vents:
&VENT MB='YMIN', SURF_ID='OPEN' /
&VENT MB='YMAX', SURF_ID='OPEN' /
&VENT MB='XMIN', SURF_ID='OPEN' /
&VENT MB='XMAX', SURF_ID='OPEN' /
&VENT MB='ZMAX', SURF_ID='OPEN' /

&SURF ID='CONE', COLOR='GREEN', TMP_FRONT=35. /
&MATL ID='CONE', DENSITY=1, CONDUCTIVITY=1, SPECIFIC_HEAT=1 /

# Species:
&SPEC ID='BACKGROUND',BACKGROUND=.TRUE., MW=24.055144069133224, DIFFUSIVITY=0.0005, VISCOSITY=0.0005,  /

# Export Parameters:
&SLCF PBY=0, QUANTITY='VELOCITY',      VECTOR=.TRUE.        /
&SLCF PBY=0, QUANTITY='TEMPERATURE',   CELL_CENTERED=.TRUE. /
&SLCF PBY=0, QUANTITY='DIVERGENCE',    CELL_CENTERED=.TRUE. /
&SLCF PBY=0, QUANTITY='H',             CELL_CENTERED=.TRUE. /
&SLCF PBY=0, QUANTITY='F_X'                                 /
&SLCF PBY=0, QUANTITY='DENSITY',       CELL_CENTERED=.TRUE. /
&SLCF PBY=0, QUANTITY='VISCOSITY',       CELL_CENTERED=.TRUE. /

&SLCF PBY=0, QUANTITY='DIVERGENCE', FACE_CENTERED=.TRUE., SLICETYPE='INCLUDE_GEOM'    /
&SLCF PBX=0, QUANTITY='TEMPERATURE', FACE_CENTERED=.TRUE., SLICETYPE='INCLUDE_GEOM'    /
&SLCF PBY=0, QUANTITY='TEMPERATURE', CELL_CENTERED=.TRUE., SLICETYPE='INCLUDE_GEOM'    /
&SLCF PBZ=0, QUANTITY='TEMPERATURE', FACE_CENTERED=.TRUE., SLICETYPE='INCLUDE_GEOM'    /
&SLCF PBY=0, QUANTITY='DENSITY', FACE_CENTERED=.TRUE.,   SLICETYPE='INCLUDE_GEOM'    /

&SLCF QUANTITY='DENSITY', FACE_CENTERED=.TRUE.,   SLICETYPE='EXIMBND_FACES'    /


&BNDF QUANTITY='WALL TEMPERATURE' /
&BNDE QUANTITY='WALL TEMPERATURE' /

# Geometries:
&GEOM ID='FEM_MESH', SURF_ID='CONE', MATL_ID='CONE'
VERTS=
     0.0699,      -0.0146,       3.4286,
     0.0714,       0.0000,       3.4286,
     0.0000,       0.0000,       4.0000,
     0.1398,      -0.0292,       2.8571,
     0.1429,       0.0000,       2.8571,
     0.2098,      -0.0438,       2.2857,
     0.2143,       0.0000,       2.2857,
     0.2797,      -0.0584,       1.7143,
     0.2857,       0.0000,       1.7143,
     0.3496,      -0.0730,       1.1429,
     0.3571,       0.0000,       1.1429,
     0.4263,      -0.0441,       0.5714,
     0.4286,       0.0000,       0.5714,
     0.4195,      -0.0876,       0.5714,
     0.4618,      -0.0477,       0.2857,
     0.4643,       0.0000,       0.2857,
     0.4545,      -0.0949,       0.2857,
     0.0656,      -0.0282,       3.4286,
     0.1313,      -0.0563,       2.8571,
     0.1969,      -0.0845,       2.2857,
! ... 296 like lines cut
FACES=
      1,        2,        3,
      4,        5,        2,
      4,        2,        1,
      6,        7,        5,
      6,        5,        4,
      8,        9,        7,
      8,        7,        6,
     10,       11,        9,
     10,        9,        8,
     12,       13,       11,
     10,       14,       12,
     11,       10,       12,
     15,       16,       13,
     15,       13,       12,
     17,       15,       12,
     17,       12,       14,
     18,        1,        3,
     19,        4,        1,
     19,        1,       18,
     20,        6,        4,
! ... 608 like lines cut
/ 

&TAIL /
