&HEAD CHID='sphere_shadow', TITLE='Complex Geometry: Test radiation from a sphere, 1 mesh.' /

&MESH IJK=64,64,64, XB=-2.0,2.0,-2.0,2.0,0.0,4.0 /

&TIME T_END=20.0 /
&PRES SOLVER='UGLMAT' /

&SPEC ID='NITROGEN', BACKGROUND=.TRUE. /

&RADI ANGLE_INCREMENT=1, TIME_STEP_INCREMENT=1, NUMBER_RADIATION_ANGLES=100, INITIAL_RADIATION_ITERATIONS=0 /

&SURF ID='HOT WALL', TMP_FRONT=500., TAU_T=0., HEAT_TRANSFER_COEFFICIENT=0., EMISSIVITY=1. /
&SURF ID='WALL', DEFAULT=.TRUE., TMP_FRONT=20., TAU_T=0., HEAT_TRANSFER_COEFFICIENT=0., EMISSIVITY=1. /
&SURF ID='SPHERE', COLOR='GREEN', MATL_ID='STUFF', THICKNESS=0.01, HEAT_TRANSFER_COEFFICIENT=0., EMISSIVITY=1. /
&MATL ID='STUFF', DENSITY=500., CONDUCTIVITY=0.1, SPECIFIC_HEAT=1. /

&VENT MB='ZMAX', SURF_ID='HOT WALL' /

&BNDF QUANTITY='RADIATIVE HEAT FLUX', CELL_CENTERED=.TRUE. /
&BNDF QUANTITY='WALL TEMPERATURE', CELL_CENTERED=.TRUE. /

&SLCF PBY=0., QUANTITY='INTEGRATED INTENSITY', CELL_CENTERED=.TRUE. /

&DEVC ID='HF1', QUANTITY='RADIATIVE HEAT FLUX', XYZ=-2, 0, 2, IOR= 1 /
&DEVC ID='HF2', QUANTITY='RADIATIVE HEAT FLUX', XYZ= 2, 0, 2, IOR=-1 /
&DEVC ID='HF3', QUANTITY='RADIATIVE HEAT FLUX', XYZ= 0,-2, 2, IOR= 2 /
&DEVC ID='HF4', QUANTITY='RADIATIVE HEAT FLUX', XYZ= 0, 2, 2, IOR=-2 /
&DEVC ID='HF5', QUANTITY='RADIATIVE HEAT FLUX', XYZ= 0, 0, 0, IOR= 3 /
&DEVC ID='HF6', QUANTITY='RADIATIVE HEAT FLUX', XYZ= 0, 0, 4, IOR=-3 /

&GEOM ID='SPHERE', SURF_ID='SPHERE'
VERTS=
   0.000,   0.000,   1.000,
   1.000,   0.000,   2.000,
   0.000,   0.000,   3.000,
  -1.000,   0.000,   2.000,
   0.188,   0.000,   1.018,
   0.369,   0.000,   1.071,
   0.545,   0.000,   1.162,
   0.700,   0.000,   1.286,
   0.827,   0.000,   1.438,
   0.922,   0.000,   1.613,
   0.980,   0.000,   1.802,
   0.982,   0.000,   2.188,
   0.929,   0.000,   2.369,
   0.838,   0.000,   2.545,
   0.714,   0.000,   2.700,
   0.562,   0.000,   2.827,
   0.387,   0.000,   2.922,
   0.198,   0.000,   2.980,
  -0.188,   0.000,   1.018,
  -0.369,   0.000,   1.071,
! ... 735 like lines cut
FACES=
     289,     294,     305,      1,
     215,     185,     216,      1,
     274,     248,     249,      1,
     271,     272,     293,      1,
     209,       6,       7,      1,
     243,     242,     214,      1,
     330,     326,     329,      1,
     318,     331,     317,      1,
      14,     201,      13,      1,
      18,      49,      33,      1,
     317,     321,     309,      1,
      45,      46,      21,      1,
     115,      87,      88,      1,
      46,      76,      47,      1,
     320,     326,     327,      1,
      66,      94,      95,      1,
     171,     179,     172,      1,
     280,     255,     254,      1,
     306,     308,     313,      1,
      60,      89,      88,      1,
! ... 638 like lines cut
/

&TAIL /
