&HEAD CHID='test3x3', TITLE='terrain' /
&MESH IJK = 3, 3, 3, XB = 0, 3, 0, 3, 0, 4 /
&TIME T_END = 0. /

&VENT XB = 0.0, 0.0, 0.0,  3.0, 0.0, 4.0, SURF_ID = 'OPEN' /
&VENT XB = 3.0, 3.0, 0.0,  3.0, 0.0, 4.0, SURF_ID = 'OPEN' /
&VENT XB = 0.0, 3.0, 0.0,  0.0, 0.0, 4.0, SURF_ID = 'OPEN' /
&VENT XB = 0.0, 3.0, 3.0,  3.0, 0.0, 4.0, SURF_ID = 'OPEN' /
&VENT XB = 0.0, 3.0, 0.0,  3.0, 4.0, 4.0, SURF_ID = 'OPEN' /

&MATL ID = 'matl1', DENSITY = 1000., CONDUCTIVITY = 1., SPECIFIC_HEAT = 1., RGB = 122,117,48 /
&SURF ID = 'surf1', RGB = 122,117,48 TEXTURE_MAP='blodget.png' /
&GEOM ID='terrain', SURF_ID='surf1',MATL_ID='matl1',
      IJK=4,4,XB=0.0,3.0,0.0,3.0,
      ZVALS=0.0,0.25,0.5,0.75,
            1.0,1.25,1.5,1.75,
            2.0,2.25,2.5,2.75,
            3.0,3.25,3.5,3.75,
            
 /
&TAIL /
