&HEAD CHID='heat_conduction_b', TITLE='Heat Transfer through solid Slab' /

&MESH IJK=3,3,3, XB=-0.15,0.15,-0.15,0.15,0.0,0.3 /

&TIME T_END=14000., WALL_INCREMENT=1, DT=0.5 /

&MISC SOLID_PHASE_ONLY=.TRUE. /  Case B

&SURF ID        = 'SLAB'
      MATL_ID   = 'SLAB_B'
      TMP_GAS_FRONT = 120.
      THICKNESS = 0.1
      STRETCH_FACTOR = 1.
      HEAT_TRANSFER_COEFFICIENT   = 10.
      BACKING   = 'INSULATED' /  

&MATL ID            = 'SLAB_B'
      CONDUCTIVITY  = 0.1
      EMISSIVITY    = 0.
      SPECIFIC_HEAT = 1.0
      DENSITY       = 100. /

&VENT XB = -0.05,0.05,-0.05,0.05,0.0,0.0, SURF_ID='SLAB' /

&VENT MB='XMIN', SURF_ID='OPEN' /
&VENT MB='XMAX', SURF_ID='OPEN' /
&VENT MB='YMIN', SURF_ID='OPEN' /
&VENT MB='YMAX', SURF_ID='OPEN' /
&VENT MB='ZMAX', SURF_ID='OPEN' /

&BNDF QUANTITY='WALL TEMPERATURE' /

&DEVC XYZ = 0.0,0.0,0.0, IOR = 3, ID='Back',  QUANTITY = 'BACK WALL TEMPERATURE' /
&DEVC XYZ = 0.0,0.0,0.0, IOR = 3, ID='8 cm',  QUANTITY = 'INSIDE WALL TEMPERATURE', DEPTH=0.08 /
&DEVC XYZ = 0.0,0.0,0.0, IOR = 3, ID='6 cm',  QUANTITY = 'INSIDE WALL TEMPERATURE', DEPTH=0.06 /
&DEVC XYZ = 0.0,0.0,0.0, IOR = 3, ID='4 cm',  QUANTITY = 'INSIDE WALL TEMPERATURE', DEPTH=0.04 /
&DEVC XYZ = 0.0,0.0,0.0, IOR = 3, ID='2 cm',  QUANTITY = 'INSIDE WALL TEMPERATURE', DEPTH=0.02 /
&DEVC XYZ = 0.0,0.0,0.0, IOR = 3, ID='Front', QUANTITY = 'WALL TEMPERATURE' /

&TAIL /



Analytical solutions of transient heat conduction to
slab of thickness 2L. Found in Drysdale (page 38 of 2nd ed.
and Carslaw & Jaeger, Chapter 3.10. In the series,
100 terms were used.

(note: in Drysdale, the characteristic eq. 2.19 should be
       cot(labda_L L) = lambda_L * L / Bi)

(1) Drysdale, D. Introduction to Fire Dynamics (2nd ed).
(2) Carslaw, H.S. & Jaeger, J.C. Conduction of Heat in Solids, 2nd
ed. Oxford University Press, 1959.

Definition: 1D conduction in domain -L < x < L with
symmetry at x = 0. Identical to slab 0 < x < L with
adiabatic boundary at x = 0. 
Initially, slab is at temperature T0. At t >= 0,
the gas temperature is set to Tinf. Convective heat transfer
from gas to slab is h * (Tinf-Tsurf). No radiation.

Common parameters
     Tinf = 120 C
     T0 = 20 C
     L = 0.1 m
     cp = 1000 J/kgK


========
	        k (W/mK)	rho (kg/m3)	alpha (m2/s)	h (W/m2K)	   Bi
Case A	      0.1	100		1E-6		     100             100
Case B	      0.1	100		1E-6		      10		    10
Case C	      1.0	1000		1E-6		      10		     1	
Case D	      10.0	10000		1E-6		      10		    0.1
========


Case a
======
Bi	= 100
h	= 100 W/m2K
k	= 0.1 W/mK
rho	= 100 kg/m3

	t (s)  x =	0.00	      0.02	    0.04	  0.06          0.08	      0.10

             0         20.00         20.00         20.00         20.00         20.00         20.00
          1.00         20.00         20.00         20.00         20.00         20.00         77.24
          2.00         20.00         20.00         20.00         20.00         20.00         86.38
          3.00         20.00         20.00         20.00         20.00         20.00         91.27
          4.00         20.00         20.00         20.00         20.00         20.00         94.46
          5.00         20.00         20.00         20.00         20.00         20.00         96.77
          6.00         20.00         20.00         20.00         20.00         20.00         98.54
          7.00         20.00         20.00         20.00         20.00         20.00         99.95
          8.00         20.00         20.00         20.00         20.00         20.00        101.12
          9.00         20.00         20.00         20.00         20.00         20.00        102.10
         10.00         20.00         20.00         20.00         20.00         20.00        102.94
         20.00         20.00         20.00         20.00         20.00         20.10        107.68
         30.00         20.00         20.00         20.00         20.00         20.71        109.86
         40.00         20.00         20.00         20.00         20.00         21.95        111.19
         50.00         20.00         20.00         20.00         20.00         23.66        112.10
         60.00         20.00         20.00         20.00         20.02         25.62        112.78
         70.00         20.00         20.00         20.00         20.06         27.69        113.30
         80.00         20.00         20.00         20.00         20.12         29.79        113.73
         90.00         20.00         20.00         20.00         20.23         31.85        114.09
        100.00         20.00         20.00         20.00         20.38         33.85        114.39
! ... 20 like lines cut


Case b
======

Bi	= 10
h	= 10 W/m2K
k	= 0.1 W/mK
rho	= 100 kg/m3

	t (s)  x =	0.00	      0.02	    0.04	  0.06          0.08	      0.10

             0         20.00         20.00         20.00         20.00         20.00         20.00
         10.00         20.00         20.00         20.00         20.00         20.00         47.64
         20.00         20.00         20.00         20.00         20.00         20.02         55.62
         30.00         20.00         20.00         20.00         20.00         20.20         60.80
         40.00         20.00         20.00         20.00         20.00         20.61         64.64
         50.00         20.00         20.00         20.00         20.00         21.26         67.68
         60.00         20.00         20.00         20.00         20.01         22.09         70.20
         70.00         20.00         20.00         20.00         20.02         23.06         72.33
         80.00         20.00         20.00         20.00         20.04         24.11         74.18
         90.00         20.00         20.00         20.00         20.08         25.21         75.80
        100.00         20.00         20.00         20.00         20.14         26.33         77.24
        110.00         20.00         20.00         20.00         20.22         27.47         78.54
        120.00         20.00         20.00         20.00         20.33         28.61         79.72
        130.00         20.00         20.00         20.01         20.46         29.74         80.79
        140.00         20.00         20.00         20.01         20.61         30.84         81.77
        150.00         20.00         20.00         20.02         20.79         31.93         82.68
        160.00         20.00         20.00         20.03         20.99         33.00         83.53
        170.00         20.00         20.00         20.04         21.22         34.03         84.31
        180.00         20.00         20.00         20.05         21.46         35.05         85.05
        190.00         20.00         20.00         20.07         21.72         36.03         85.73
! ... 12 like lines cut

Case c
======
Bi	= 1.0
h	= 10 W/m2K
k	= 1.0 W/mK
rho	= 1000 kg/m3


	t (s)  x =	0.00	      0.02	    0.04	  0.06          0.08	      0.10
             0         20.00         20.00         20.00         20.00         20.00         20.00
         50.00         20.00         20.00         20.00         20.00         20.16         27.50
        100.00         20.00         20.00         20.00         20.02         20.95         30.35
        150.00         20.00         20.00         20.00         20.12         21.98         32.45
        200.00         20.00         20.00         20.01         20.32         23.05         34.15
        250.00         20.00         20.00         20.05         20.61         24.10         35.61
        300.00         20.00         20.01         20.11         20.96         25.11         36.89
        350.00         20.00         20.02         20.20         21.37         26.07         38.05
        400.00         20.01         20.04         20.32         21.80         26.99         39.10
        450.00         20.01         20.07         20.46         22.26         27.86         40.06
        500.00         20.02         20.11         20.63         22.74         28.69         40.96
       1000.00         20.69         21.22         23.16         27.48         35.38         47.64
       2000.00         24.94         26.03         29.43         35.39         44.12         55.66
       3000.00         30.82         32.04         35.72         41.84         50.36         61.11
       4000.00         36.90         38.10         41.67         47.55         55.59         65.58
       5000.00         42.75         43.88         47.24         52.76         60.26         69.55
       6000.00         48.23         49.29         52.43         57.57         64.55         73.17
       7000.00         53.34         54.33         57.25         62.02         68.51         76.52
       8000.00         58.10         59.01         61.73         66.16         72.19         79.63
       9000.00         62.51         63.36         65.88         70.00         75.60         82.51
! ... 9 like lines cut

Case d
======
Bi	= 0.1
h	= 10 W/m2K
k	= 10.0 W/mK
rho	= 10000 kg/m3


	t (s)  x =	0.00	      0.02	    0.04	  0.06          0.08	      0.10

             0         20.00         20.00         20.00         20.00         20.00         20.00
         50.00         20.00         20.00         20.00         20.00         20.02         20.79
        100.00         20.00         20.00         20.00         20.00         20.10         21.12
        150.00         20.00         20.00         20.00         20.01         20.21         21.37
        200.00         20.00         20.00         20.00         20.03         20.33         21.58
        250.00         20.00         20.00         20.00         20.07         20.45         21.76
        300.00         20.00         20.00         20.01         20.10         20.57         21.92
        350.00         20.00         20.00         20.02         20.15         20.68         22.08
        400.00         20.00         20.00         20.03         20.20         20.79         22.22
        450.00         20.00         20.01         20.05         20.25         20.89         22.35
        500.00         20.00         20.01         20.07         20.31         21.00         22.47
       1000.00         20.08         20.14         20.37         20.89         21.87         23.47
       2000.00         20.60         20.74         21.19         21.98         23.19         24.86
       3000.00         21.39         21.57         22.09         22.98         24.26         25.94
       4000.00         22.28         22.47         23.01         23.93         25.23         26.90
       5000.00         23.20         23.39         23.94         24.87         26.16         27.82
       6000.00         24.13         24.31         24.86         25.78         27.07         28.72
       7000.00         25.05         25.23         25.78         26.69         27.97         29.60
       8000.00         25.96         26.14         26.69         27.59         28.85         30.47
       9000.00         26.86         27.04         27.58         28.48         29.73         31.33
! ... 9 like lines cut


