&HEAD CHID='ht3d_slab', TITLE='Heat transfer to a semi-infinite slab' /

&MESH IJK=48,1,5 XB=-.6,.6,-.05,.05,0,1 /

&TIME T_END=1800, DT=1.25 /

&MISC TMPA=0, STRATIFICATION=F, NOISE=F, FREEZE_VELOCITY=T /

&RADI RADIATION=F /

&SURF ID='front', HT3D=T, HEAT_TRANSFER_COEFFICIENT=1., COLOR='BURNT ORANGE' /
&SURF ID='side', ADIABATIC=T, COLOR='GRAY' /
&SURF ID='back', TMP_FRONT=1, RAMP_T='T_ramp', COLOR='BLACK' /

&MATL ID            = 'SLAB_A'
      CONDUCTIVITY  = 1.0
      EMISSIVITY    = 0.
      SPECIFIC_HEAT = 0.001
      DENSITY       = 1000. /

&OBST XB=0,.5,-.5,.5,0,1,
      SURF_ID6='front','back','side','side','side','side',
      MATL_ID='SLAB_A',
      HT3D=T /

&INIT XB=0,.5,-.5,.5,0,1, TEMPERATURE=1000 /

&VENT MB='XMIN', SURF_ID='OPEN' /
&VENT MB='ZMIN', SURF_ID='OPEN' /
&VENT MB='ZMAX', SURF_ID='OPEN' /

&BNDF QUANTITY='WALL TEMPERATURE' /
&BNDF QUANTITY='CONVECTIVE HEAT FLUX' /
&BNDF QUANTITY='NET HEAT FLUX' /

&SLCF PBY=0., QUANTITY='VELOCITY', VECTOR=T /
&SLCF PBY=0., QUANTITY='TEMPERATURE', CELL_CENTERED=T /

&DEVC XB=0,0,-.05,.05,0,1, QUANTITY='WALL TEMPERATURE', IOR=-1, SPATIAL_STATISTIC='MEAN', TIME_AVERAGED=F, ID='TS' /

! Analytical solution at x = 0.5 m
&RAMP ID='T_ramp', T= 0.000000 , F= 1000.000000  /
&RAMP ID='T_ramp', T= 18.181818 , F= 999.507013  /
&RAMP ID='T_ramp', T= 36.363636 , F= 993.875090  /
&RAMP ID='T_ramp', T= 54.545455 , F= 983.394396  /
&RAMP ID='T_ramp', T= 72.727273 , F= 970.736139  /
&RAMP ID='T_ramp', T= 90.909091 , F= 957.338457  /
&RAMP ID='T_ramp', T= 109.090909 , F= 943.881378  /
&RAMP ID='T_ramp', T= 127.272727 , F= 930.684830  /
&RAMP ID='T_ramp', T= 145.454545 , F= 917.895954  /
&RAMP ID='T_ramp', T= 163.636364 , F= 905.576038  /
&RAMP ID='T_ramp', T= 181.818182 , F= 893.742570  /
&RAMP ID='T_ramp', T= 200.000000 , F= 882.390488  /
&RAMP ID='T_ramp', T= 218.181818 , F= 871.503314  /
&RAMP ID='T_ramp', T= 236.363636 , F= 861.059146  /
&RAMP ID='T_ramp', T= 254.545455 , F= 851.033938  /
&RAMP ID='T_ramp', T= 272.727273 , F= 841.403293  /
&RAMP ID='T_ramp', T= 290.909091 , F= 832.143433  /
&RAMP ID='T_ramp', T= 309.090909 , F= 823.231701  /
&RAMP ID='T_ramp', T= 327.272727 , F= 814.646795  /
&RAMP ID='T_ramp', T= 345.454545 , F= 806.368843  /
! ... 80 like lines cut

