&HEAD CHID='SFPE_Case_7', TITLE='Verification Case 7, SFPE Guide to Thermal Performance of Resistive Assemblies'/

&MESH IJK=24,24,3, XB=-0.12,0.12,-0.12,0.12,-0.01,0.02 /

&TIME T_END=10800, DT=1., WALL_INCREMENT=1 /

&MISC SOLID_PHASE_ONLY=T, TMPA=0. /

&RADI RADIATION=T /

&OBST XB=-0.10, 0.10,-0.10, 0.10,0.0,0.01, SURF_IDS='ADIABATIC','STUFF','ADIABATIC', MATL_ID='STUFF' /

&SURF ID='STUFF', COLOR='GRAY', HEAT_TRANSFER_COEFFICIENT=10.0, EMISSIVITY=0.8, HT3D=T, CELL_SIZE=0.01, TMP_GAS_FRONT=1., RAMP_TMP_GAS_FRONT='fire_ramp' /
&SURF ID='ADIABATIC', HEAT_TRANSFER_COEFFICIENT=0.0, EMISSIVITY=0.0, HT3D=T, CELL_SIZE=0.01 /

&RAMP ID='fire_ramp',  T=0, F=0 /
&RAMP ID='fire_ramp',  T=60, F=329.2136658 /
&RAMP ID='fire_ramp',  T=120, F=424.5048779 /
&RAMP ID='fire_ramp',  T=180, F=482.289303 /
&RAMP ID='fire_ramp',  T=240, F=523.8873093 /
&RAMP ID='fire_ramp',  T=300, F=556.4104306 /
&RAMP ID='fire_ramp',  T=360, F=583.1176476 /
&RAMP ID='fire_ramp',  T=420, F=605.7768252 /
&RAMP ID='fire_ramp',  T=480, F=625.455108 /
&RAMP ID='fire_ramp',  T=540, F=642.8463867 /
&RAMP ID='fire_ramp',  T=600, F=658.4273315 /
&RAMP ID='fire_ramp',  T=660, F=672.5395523 /
&RAMP ID='fire_ramp',  T=720, F=685.4362483 /
&RAMP ID='fire_ramp',  T=780, F=697.3103082 /
&RAMP ID='fire_ramp',  T=840, F=708.312063 /
&RAMP ID='fire_ramp',  T=900, F=718.5609528 /
&RAMP ID='fire_ramp',  T=960, F=728.1534501 /
&RAMP ID='fire_ramp',  T=1020, F=737.1685957 /
&RAMP ID='fire_ramp',  T=1080, F=745.6719608 /
&RAMP ID='fire_ramp',  T=1140, F=753.7185436 /
! ... 161 like lines cut

&MATL ID            = 'STUFF'
      SPECIFIC_HEAT = 1.0
      CONDUCTIVITY  = 1.0
      DENSITY       = 2400.0 /

&BNDF QUANTITY='WALL TEMPERATURE', CELL_CENTERED=T/
&BNDF QUANTITY='NET HEAT FLUX', CELL_CENTERED=T/

&VENT DB='XMIN', SURF_ID='OPEN' /
&VENT DB='XMAX', SURF_ID='OPEN' /
&VENT DB='YMIN', SURF_ID='OPEN' /
&VENT DB='YMAX', SURF_ID='OPEN' /
&VENT DB='ZMIN', SURF_ID='OPEN' /
&VENT DB='ZMAX', SURF_ID='OPEN' /

&DUMP DT_DEVC=1.0 /

&SLCF PBZ=0.005, QUANTITY='TEMPERATURE', CELL_CENTERED=T /

&DEVC ID='Center', XYZ=0.0,0.000,0.005, QUANTITY='TEMPERATURE' /
&DEVC ID='Side',   XYZ=0.1,0.000,0.005, QUANTITY='WALL TEMPERATURE', IOR=1 /
&DEVC ID='Corner', XYZ=0.1,0.099,0.005, QUANTITY='WALL TEMPERATURE', IOR=1 /

&TAIL /
