&HEAD CHID='SFPE_Case_13', TITLE='Verification Case 8, SFPE Guide to Thermal Performance of Resistive Assemblies'/

&MESH IJK=24,24,3, XB=-0.12,0.12,-0.12,0.12,-0.01,0.02 /

&TIME T_END=10800, DT=1., WALL_INCREMENT=1 /

&MISC SOLID_PHASE_ONLY=T, TMPA=20. /

&RADI RADIATION=T /

&OBST XB=-0.10, 0.10,-0.10, 0.10,0.0,0.01, SURF_IDS='ADIABATIC','STUFF','ADIABATIC', MATL_ID='STUFF' /

&SURF ID='STUFF', COLOR='GRAY', HEAT_TRANSFER_COEFFICIENT=10.0, EMISSIVITY=0.8, HT3D=T, CELL_SIZE=0.01, TMP_GAS_FRONT=1000., RAMP_TMP_GAS_FRONT='fire_ramp' /
&SURF ID='ADIABATIC', HEAT_TRANSFER_COEFFICIENT=0.0, EMISSIVITY=0.0, HT3D=T, CELL_SIZE=0.01 /

&RAMP ID='fire_ramp', T=0, F=0 /
&RAMP ID='fire_ramp', T=60, F=0.335932312 /
&RAMP ID='fire_ramp', T=120, F=0.433168243 /
&RAMP ID='fire_ramp', T=180, F=0.492131942 /
&RAMP ID='fire_ramp', T=240, F=0.534578887 /
&RAMP ID='fire_ramp', T=300, F=0.567765745 /
&RAMP ID='fire_ramp', T=360, F=0.595018008 /
&RAMP ID='fire_ramp', T=420, F=0.618139618 /
&RAMP ID='fire_ramp', T=480, F=0.638219498 /
&RAMP ID='fire_ramp', T=540, F=0.655965701 /
&RAMP ID='fire_ramp', T=600, F=0.671864624 /
&RAMP ID='fire_ramp', T=660, F=0.686264849 /
&RAMP ID='fire_ramp', T=720, F=0.699424743 /
&RAMP ID='fire_ramp', T=780, F=0.711541131 /
&RAMP ID='fire_ramp', T=840, F=0.722767411 /
&RAMP ID='fire_ramp', T=900, F=0.733225462 /
&RAMP ID='fire_ramp', T=960, F=0.743013725 /
&RAMP ID='fire_ramp', T=1020, F=0.752212853 /
&RAMP ID='fire_ramp', T=1080, F=0.760889756 /
&RAMP ID='fire_ramp', T=1140, F=0.769100555 /
! ... 161 like lines cut

&MATL ID            = 'STUFF'
      SPECIFIC_HEAT_RAMP = 'c_ramp'
      CONDUCTIVITY_RAMP = 'k_ramp'
      DENSITY       = 2400.0 /

&RAMP ID='k_ramp', T=   0, F=1.5 /
&RAMP ID='k_ramp', T= 200, F=0.7 /
&RAMP ID='k_ramp', T=1000, F=0.5 /

&RAMP ID='c_ramp', T=   0.0, F=1.089 /
&RAMP ID='c_ramp', T=  99.9, F=1.089 /
&RAMP ID='c_ramp', T= 100.0, F=5.790 /
&RAMP ID='c_ramp', T= 120.0, F=1.0   /
&RAMP ID='c_ramp', T=1000.0, F=1.0   /

&BNDF QUANTITY='WALL TEMPERATURE', CELL_CENTERED=T/
&BNDF QUANTITY='NET HEAT FLUX', CELL_CENTERED=T/

&VENT DB='XMIN', SURF_ID='OPEN' /
&VENT DB='XMAX', SURF_ID='OPEN' /
&VENT DB='YMIN', SURF_ID='OPEN' /
&VENT DB='YMAX', SURF_ID='OPEN' /
&VENT DB='ZMIN', SURF_ID='OPEN' /
&VENT DB='ZMAX', SURF_ID='OPEN' /

&DUMP DT_DEVC=1.0 /

&SLCF PBZ=0.005, QUANTITY='TEMPERATURE', CELL_CENTERED=T /

&DEVC ID='Center', XYZ=0.0,0.000,0.005, QUANTITY='TEMPERATURE' /
&DEVC ID='Side',   XYZ=0.1,0.000,0.005, QUANTITY='WALL TEMPERATURE', IOR=1 /
&DEVC ID='Corner', XYZ=0.1,0.099,0.005, QUANTITY='WALL TEMPERATURE', IOR=1 /


&TAIL /
