*Heading
** Job name: Arch_demo Model name: Model-1
** Generated by: Abaqus/CAE 6.12-1
*Preprint, echo=NO, model=NO, history=NO, contact=NO
**
** PARTS
**
*Part, name=Part-1
*End Part
**  
**
** ASSEMBLY
**
*Assembly, name=Assembly
**  
*Instance, name=Part-1-1, part=Part-1
*Node
      1,  0.179229856, 0.0599999987,  0.551612794
      2,  0.179229856, 0.00999999978,  0.551612794
      3,           0., 0.00999999978,  0.579999983
      4,           0., 0.0599999987,  0.579999983
      5,  0.185410202, 0.0599999987,  0.570633888
      6,           0., 0.0599999987,  0.600000024
      7,  0.185410202, -0.0599999987,  0.570633888
      8,           0.,           0.,  0.600000024
      9,           0., -0.0599999987,  0.600000024
     10,  0.179229856, -0.0599999987,  0.551612794
     11,           0., -0.0599999987,  0.579999983
     12,  0.179229856, -0.00999999978,  0.551612794
     13,           0., -0.00999999978,  0.579999983
     14,  0.129787132, -0.00999999978,  0.399443746
     15,           0., -0.00999999978,  0.419999987
     16,  0.129787132, -0.0599999987,  0.399443746
     17,           0., -0.0599999987,  0.419999987
     18,  0.123606801, -0.0599999987,  0.380422592
     19,           0., -0.0599999987,  0.400000006
     20,  0.123606801, 0.0599999987,  0.380422592
** ... 4211 like lines cut
*Element, type=C3D4T
   1, 3235, 1208, 3236, 1213
   2, 1155, 1261, 1162, 3237
   3, 1187, 1286, 1186, 3238
   4, 3239, 1124, 3240, 1125
   5, 3239, 3241, 1130, 1125
   6, 3239, 1089, 3242, 1130
   7, 3239, 1129,   71,   70
   8, 3239, 1129, 1090,   71
   9, 3239, 1129,   70, 1124
  10, 3239, 1129, 3242, 1090
  11, 3243, 1085, 3244, 1083
  12, 3243, 3245, 1115, 1114
  13, 3243, 1085, 3240, 1120
  14, 1114, 3243, 1084, 1119
  15,   69,   68, 1086, 1119
  16, 3246, 3247, 1178, 1171
  17, 3243, 3240, 1119, 1120
  18, 3248, 3249, 1238,  175
  19, 3248, 1238, 3249, 1314
  20, 3248, 3249,  175,  207
** ... 15153 like lines cut
*Nset, nset=_PickedSet2, internal, generate
    1,  4231,     1
*Elset, elset=_PickedSet2, internal, generate
     1,  15173,      1
** Section: Section-1
*Solid Section, elset=_PickedSet2, material=Aluminum
,
*End Instance
**  
*Nset, nset=Set-Cold, instance=Part-1-1
   50,   51,   52,   53,   54,   55,   56,   57,   58,   59,   60,   61,  737,  738,  823,  824
  825,  826,  827,  884,  913,  914,  915,  916,  917,  918,  919,  948, 1005, 1006, 1007, 1008
 1009, 1038, 1039, 1040, 1041, 1042, 1043, 1044, 1045, 1046
*Elset, elset=Set-Cold, instance=Part-1-1
  9396,  9571,  9575,  9615,  9617,  9625, 10297, 10440, 10972, 11058, 11087, 11203, 11305, 11310, 11312, 11923
 11944, 12987, 13064, 13081, 13305, 13597, 13604, 13613, 14059, 14183, 14190, 14203, 14212, 14224, 14231, 14354
 14355, 14356, 14369, 14377, 14858, 14859, 14900, 14963
*Nset, nset=Set-Hot, instance=Part-1-1
  28,  29,  31,  34,  35,  37,  39,  41,  43,  45,  47,  48, 302, 336, 337, 338
 339, 340, 427, 428, 464, 465, 466, 467, 468, 469, 470, 501, 502, 536, 537, 538
 539, 540, 576, 577, 578, 579, 580, 581, 582, 583
*Elset, elset=Set-Hot, instance=Part-1-1
 1863, 1971, 2110, 2112, 2138, 2141, 2243, 3051, 3185, 3538, 3591, 3603, 3634, 3888, 3902, 4045
 4046, 4047, 4050, 4357, 4571, 4711, 4716, 4720, 4722, 4726, 4738, 4741, 4756, 5484, 5712, 5718
 6228, 6311, 6327, 6399, 6466, 7201, 7209, 7470
*Nset, nset=Set-OutSurf, instance=Part-1-1
   28,   29,   31,   34,   35,   37,   39,   41,   43,   45,   47,   48,   50,   51,   52,   53
   54,   55,   56,   57,   58,   59,   60,   61,  302,  336,  337,  338,  339,  340,  427,  428
  464,  465,  466,  467,  468,  469,  470,  501,  502,  536,  537,  538,  539,  540,  576,  577
  578,  579,  580,  581,  582,  583,  737,  738,  823,  824,  825,  826,  827,  884,  913,  914
  915,  916,  917,  918,  919,  948, 1005, 1006, 1007, 1008, 1009, 1038, 1039, 1040, 1041, 1042
 1043, 1044, 1045, 1046
*Elset, elset=Set-OutSurf, instance=Part-1-1
  1863,  1971,  2110,  2112,  2138,  2141,  2243,  3051,  3185,  3538,  3591,  3603,  3634,  3888,  3902,  4045
  4046,  4047,  4050,  4357,  4571,  4711,  4716,  4720,  4722,  4726,  4738,  4741,  4756,  5484,  5712,  5718
  6228,  6311,  6327,  6399,  6466,  7201,  7209,  7470,  9396,  9571,  9575,  9615,  9617,  9625, 10297, 10440
 10972, 11058, 11087, 11203, 11305, 11310, 11312, 11923, 11944, 12987, 13064, 13081, 13305, 13597, 13604, 13613
 14059, 14183, 14190, 14203, 14212, 14224, 14231, 14354, 14355, 14356, 14369, 14377, 14858, 14859, 14900, 14963
*Nset, nset=Set-ends, instance=Part-1-1
   28,   29,   31,   34,   35,   37,   39,   41,   43,   45,   47,   48,   50,   51,   52,   53
   54,   55,   56,   57,   58,   59,   60,   61,  302,  336,  337,  338,  339,  340,  427,  428
  464,  465,  466,  467,  468,  469,  470,  501,  502,  536,  537,  538,  539,  540,  576,  577
  578,  579,  580,  581,  582,  583,  737,  738,  823,  824,  825,  826,  827,  884,  913,  914
  915,  916,  917,  918,  919,  948, 1005, 1006, 1007, 1008, 1009, 1038, 1039, 1040, 1041, 1042
 1043, 1044, 1045, 1046
*Elset, elset=Set-ends, instance=Part-1-1
  1863,  1971,  2110,  2112,  2138,  2141,  2243,  3051,  3185,  3538,  3591,  3603,  3634,  3888,  3902,  4045
  4046,  4047,  4050,  4357,  4571,  4711,  4716,  4720,  4722,  4726,  4738,  4741,  4756,  5484,  5712,  5718
  6228,  6311,  6327,  6399,  6466,  7201,  7209,  7470,  9396,  9571,  9575,  9615,  9617,  9625, 10297, 10440
 10972, 11058, 11087, 11203, 11305, 11310, 11312, 11923, 11944, 12987, 13064, 13081, 13305, 13597, 13604, 13613
 14059, 14183, 14190, 14203, 14212, 14224, 14231, 14354, 14355, 14356, 14369, 14377, 14858, 14859, 14900, 14963
*Nset, nset=Set-loading, instance=Part-1-1
 8,
*Nset, nset=Set-17, instance=Part-1-1
   3,   4,   6,   8,   9,  11,  13,  15,  17,  19,  21,  23,  24,  72,  73,  95
  96,  97,  98, 116, 132, 133, 134, 135, 136, 137, 138, 148, 170, 171, 172, 173
 174, 198, 199, 200, 201, 202, 203, 204, 205, 206
*Elset, elset=Set-17, instance=Part-1-1
  109,  113,  118,  120,  121,  298,  312,  320,  322,  380,  381,  436,  438,  451,  452,  575
  589,  635,  686,  687,  688,  749,  757,  792,  799,  804,  807,  809,  811,  813,  816,  818
  820,  823,  824,  825,  829,  832,  842, 1053, 1054, 1061, 1063, 1068, 1073, 1075, 1078, 1092
 1093, 1104, 1213, 1217, 1236, 1243, 1263, 1268, 1279, 1280, 1440, 1442, 1444, 1445, 1447, 1464
 1516, 1518, 1534, 1536, 1539, 1545, 1550, 1557, 1601, 1747, 1775, 7614, 7618, 7678, 7752, 7779
 7781, 7801, 7835, 7855, 7875, 7877, 7879, 7891, 7892, 7936, 7937, 7938, 7965, 7980, 7986, 8025
 8090, 8143, 8144, 8190, 8191, 8253, 8369, 8377, 8494, 8529, 8540, 8541, 8593, 8594, 8595, 8596
 8598, 8600, 8602, 8606, 8608, 8611, 8615, 8618, 8629, 8659, 8662, 8681, 8852, 8853, 8854, 8856
 8857, 8868, 8971, 8999, 9003, 9007, 9013, 9023, 9028, 9029, 9135, 9164, 9204, 9207, 9210, 9216
 9220, 9225, 9244, 9266, 9306
*Nset, nset=Set-Ysym, instance=Part-1-1
    1,    4,    5,    6,    7,    9,   10,   11,   16,   17,   18,   19,   20,   21,   24,   25
   26,   27,   28,   29,   32,   33,   34,   35,   36,   37,   42,   43,   44,   45,   48,   49
   50,   52,   53,   54,   57,   58,   59,   60,   74,   75,   76,   77,   78,   79,   80,   81
   82,   83,   84,   85,   86,   87,   88,   89,   99,  100,  101,  102,  103,  104,  105,  106
  107,  108,  109,  110,  111,  112,  113,  114,  149,  150,  151,  152,  153,  154,  155,  156
  157,  158,  159,  160,  161,  162,  163,  164,  175,  176,  177,  178,  179,  180,  181,  182
  207,  208,  209,  210,  211,  212,  213,  214,  217,  218,  219,  220,  221,  222,  223,  224
  225,  226,  227,  228,  229,  230,  231,  232,  233,  234,  235,  236,  237,  238,  239,  240
  241,  242,  243,  244,  245,  246,  247,  248,  249,  250,  251,  252,  253,  254,  255,  256
  257,  258,  259,  260,  261,  262,  263,  264,  265,  266,  267,  268,  269,  270,  271,  272
  308,  309,  310,  311,  312,  313,  314,  315,  316,  317,  318,  319,  320,  321,  322,  323
  324,  325,  326,  327,  328,  329,  330,  331,  332,  333,  334,  335,  341,  342,  343,  344
  345,  346,  347,  348,  349,  350,  351,  352,  353,  354,  355,  356,  357,  358,  359,  360
  361,  362,  363,  364,  365,  366,  367,  368,  369,  370,  371,  372,  373,  374,  375,  376
  377,  378,  379,  380,  381,  382,  383,  384,  385,  386,  387,  388,  389,  390,  391,  392
  393,  394,  395,  396,  473,  474,  475,  476,  477,  478,  479,  480,  481,  482,  483,  484
  485,  486,  487,  488,  489,  490,  491,  492,  493,  494,  495,  496,  497,  498,  499,  500
  503,  504,  505,  506,  507,  508,  509,  510,  511,  512,  513,  514,  515,  516,  517,  518
  519,  520,  521,  522,  523,  524,  525,  526,  527,  528,  529,  530,  584,  585,  586,  587
  588,  589,  590,  591,  592,  593,  594,  595,  596,  597,  598,  599,  600,  601,  602,  603
** ... 19 like lines cut
*Elset, elset=Set-Ysym, instance=Part-1-1
    76,    88,    89,   101,   113,   114,   120,   188,   191,   229,   294,   315,   344,   529,   544,   545
   565,   610,   616,   617,   655,   659,   678,   679,   683,   686,   692,   696,   710,   747,   761,   762
   763,   769,   779,   801,   878,  1061,  1095,  1098,  1108,  1109,  1145,  1163,  1169,  1173,  1205,  1212
  1226,  1227,  1230,  1234,  1238,  1240,  1250,  1251,  1258,  1275,  1349,  1350,  1531,  1563,  1599,  1624
  1642,  1723,  1732,  1736,  1740,  1763,  1767,  1798,  1813,  1820,  1832,  1847,  1858,  1862,  1873,  1884
  1892,  1902,  1937,  1947,  1953,  1957,  1960,  1976,  1999,  2036,  2109,  2236,  2332,  2490,  2496,  2501
  2507,  2517,  2561,  2566,  2569,  2596,  2600,  2680,  2740,  2759,  2762,  2872,  2917,  2929,  3037,  3039
  3042,  3094,  3152,  3187,  3240,  3244,  3431,  3442,  3464,  3491,  3498,  3511,  3523,  3524,  3546,  3547
  3600,  3624,  3639,  3655,  3673,  3684,  3704,  3716,  3732,  3751,  3759,  3774,  3775,  3777,  3789,  3794
  3825,  3836,  3838,  3841,  3845,  3861,  3868,  3870,  3883,  3893,  3906,  3909,  3912,  3923,  3925,  3926
  3956,  3959,  3988,  4005,  4011,  4028,  4029,  4048,  4057,  4064,  4065,  4091,  4118,  4130,  4132,  4154
  4158,  4163,  4187,  4199,  4218,  4222,  4224,  4240,  4254,  4275,  4278,  4289,  4314,  4320,  4325,  4327
  4345,  4374,  4385,  4387,  4389,  4392,  4395,  4414,  4417,  4435,  4437,  4439,  4449,  4451,  4459,  4461
  4527,  4545,  4592,  4689,  4692,  4696,  4706,  4862,  4878,  4911,  4947,  4964,  4997,  5081,  5197,  5209
  5275,  5498,  5564,  5588,  5591,  5605,  5634,  5641,  5648,  5649,  5658,  5709,  5711,  5716,  5728,  5729
  5774,  5789,  5805,  5808,  5840,  5856,  5858,  5872,  5874,  5892,  5910,  5929,  5931,  5946,  5947,  5949
  5965,  5986,  6016,  6021,  6032,  6050,  6081,  6083,  6093,  6094,  6109,  6111,  6131,  6147,  6149,  6162
  6165,  6180,  6182,  6200,  6208,  6243,  6261,  6383,  6650,  6714,  6760,  6886,  7202,  7203,  7208,  7210
  7231,  7254,  7256,  7303,  7320,  7323,  7335,  7355,  7395,  7400,  7407,  7433,  7435,  7503,  7518,  7524
  7642,  7937,  8009,  8042,  8043,  8083,  8089,  8090,  8094,  8115,  8118,  8120,  8281,  8283,  8297,  8298
** ... 18 like lines cut
*Elset, elset=_Surf-loading_S1, internal, instance=Part-1-1
  399, 1445, 1466, 1476, 1544, 1550, 1562, 1565, 1615, 1629, 1667, 1696, 1706, 1711, 1757, 1760
 7569, 8310, 9013, 9014, 9080, 9099, 9103, 9112, 9156, 9182, 9246, 9270, 9300, 9361
*Elset, elset=_Surf-loading_S3, internal, instance=Part-1-1
   36,   47,   97,  112,  115,  118,  158,  189,  224,  230,  342,  434,  461,  547,  597,  681
 1459, 1488, 1503, 1518, 1520, 1522, 1524, 1529, 1532, 1534, 1540, 1546, 1548, 1549, 1556, 1558
 1561, 1567, 1568, 1569, 1571, 1574, 1577, 1584, 1586, 1587, 1592, 1600, 1603, 1610, 1612, 1620
 1621, 1623, 1633, 1635, 1641, 1647, 1648, 1650, 1652, 1660, 1666, 1670, 1673, 1674, 1679, 1681
 1686, 1693, 1698, 1710, 1714, 1715, 1716, 1724, 1727, 1728, 1733, 1749, 1754, 1765, 1766, 1776
 1778, 1783, 1787, 1799, 1806, 7570, 7628, 7656, 7677, 7714, 7717, 7914, 7945, 7983, 8008, 8034
 8035, 8180, 8223, 8245, 8247, 8270, 8271, 8275, 8312, 8320, 8324, 8329, 8348, 8349, 8474, 8514
 8518, 8606, 8831, 8866, 8868, 8887, 8907, 8924, 8960, 8988, 9000, 9004, 9007, 9012, 9020, 9032
 9036, 9047, 9054, 9057, 9058, 9067, 9068, 9069, 9071, 9079, 9081, 9092, 9093, 9108, 9110, 9111
 9116, 9120, 9125, 9153, 9161, 9170, 9179, 9183, 9184, 9186, 9189, 9211, 9244, 9291, 9303, 9362
*Elset, elset=_Surf-loading_S4, internal, instance=Part-1-1
 1545, 1578, 1672, 1721, 1796, 7591, 8321, 8993, 9034, 9041, 9046, 9082, 9102, 9119, 9205
*Elset, elset=_Surf-loading_S2, internal, instance=Part-1-1
 1588, 1627, 8909, 8911, 9023, 9024, 9030, 9065, 9074, 9101, 9122
*Surface, type=ELEMENT, name=Surf-loading
_Surf-loading_S1, S1
_Surf-loading_S3, S3
_Surf-loading_S4, S4
_Surf-loading_S2, S2
*End Assembly
*Amplitude, name=Amp-load
             0.,              0.,             60.,      100000000.
** 
** MATERIALS
** 
*Material, name=Aluminum
*Conductivity
237.,
*Density
2700.,
*Elastic
 7e+10, 0.35
*Specific Heat
900.,
** 
** PREDEFINED FIELDS
** 
** Name: Predefined Field-1   Type: Temperature
*Initial Conditions, type=TEMPERATURE
Set-17, 20.
** ----------------------------------------------------------------
** 
** STEP: Step-1
** 
*Step, name=Step-1, nlgeom=YES
Arch beam pushed down
*Coupled Temperature-displacement, creep=none, deltmx=50.
1., 60., 0.0006, 60.
** 
** BOUNDARY CONDITIONS
** 
** Name: BC-1 Type: Symmetry/Antisymmetry/Encastre
*Boundary
Set-ends, ZSYMM
** Name: BC-2 Type: Symmetry/Antisymmetry/Encastre
*Boundary
Set-Ysym, YSYMM
** Name: BC-3 Type: Displacement/Rotation
*Boundary
Set-loading, 1, 1
** 
** LOADS
** 
** Name: Load-2   Type: Pressure
*Dsload, amplitude=Amp-load
Surf-loading, P, 8.
** 
** OUTPUT REQUESTS
** 
*Restart, write, frequency=0
** 
** FIELD OUTPUT: F-Output-1
** 
*Output, field, time interval=1.
*Node Output
NT, UT
*Element Output, directions=YES
S, 
** 
** HISTORY OUTPUT: H-Output-1
** 
*Output, history, variable=PRESELECT
*End Step
