&HEAD CHID='Arch_demo', TITLE='Demo of Abaqus >> Matlab freeBoundary, created by Arch_demo.m' /
  
&MESH IJK=32,32,32, XB=-1.,1.,-1.,1.,-0.2,1/
  
&TIME T_END=60./
  
&MISC IMMERSED_BOUNDARY_METHOD=1 /

&DUMP CUTCELL_DATA_FILE=.TRUE. /
  
&SURF ID='hot vent', COLOR='RED', CONVECTIVE_HEAT_FLUX=10./
&PART ID='p1', SURF_ID='arch surf', STATIC=.TRUE., PROP_ID='ball', QUANTITIES(1)='PARTICLE TEMPERATURE' /
&PROP ID='ball', SMOKEVIEW_ID='SPHERE', SMOKEVIEW_PARAMETERS(1)='D=0.01' /
&SURF ID='arch surf', COLOR='BLUE', EMISSIVITY=0.95, RADIUS=0.005, GEOMETRY='SPHERICAL' /

&GEOM ID='arch', SHAPE='COMPLEX', SURF_ID='arch surf'
      DT_GEOC=1., GEOC_FILENAME='Arch_demo_01.gc'
      DT_BNDC=1., BNDC_FILENAME='Arch_demo_01.bc'/
  
&VENT MB='XMIN', SURF_ID='OPEN'/
&VENT MB='XMAX', SURF_ID='OPEN'/
&VENT MB='YMIN', SURF_ID='OPEN'/
&VENT MB='YMAX', SURF_ID='OPEN'/
&VENT MB='ZMAX', SURF_ID='OPEN'/
&VENT XB=-.2,.2,-.2,.2,-0.2,-0.2, SURF_ID='hot vent'/
  
&MATL ID='my solid', DENSITY=2700., CONDUCTIVITY=120., SPECIFIC_HEAT=.903 /
  
&SLCF PBY=0, QUANTITY='TEMPERATURE', VECTOR=.TRUE. /
&SLCF PBX=0, QUANTITY='TEMPERATURE', VECTOR=.TRUE. /
  
&BNDE QUANTITY='WALL TEMPERATURE' /
  
&VERT X=0.17923,0.06,0.55161 /
&VERT X=0.17923,0.01,0.55161 /
&VERT X=0,0.01,0.58 /
&VERT X=0,0.06,0.58 /
&VERT X=0.18541,0.06,0.57063 /
&VERT X=0,0.06,0.6 /
&VERT X=0.18541,-0.06,0.57063 /
&VERT X=0,0,0.6 /
&VERT X=0,-0.06,0.6 /
&VERT X=0.17923,-0.06,0.55161 /
&VERT X=0,-0.06,0.58 /
&VERT X=0.17923,-0.01,0.55161 /
&VERT X=0,-0.01,0.58 /
&VERT X=0.12979,-0.01,0.39944 /
&VERT X=0,-0.01,0.42 /
&VERT X=0.12979,-0.06,0.39944 /
&VERT X=0,-0.06,0.42 /
&VERT X=0.12361,-0.06,0.38042 /
&VERT X=0,-0.06,0.4 /
&VERT X=0.12361,0.06,0.38042 /
! ... 4211 like lines cut
  
&FACE N=69,1086,68, SURF_ID='arch surf',PART_ID='p1' /
&FACE N=1115,1114,1109, SURF_ID='arch surf',PART_ID='p1' /
&FACE N=1314,1312,208, SURF_ID='arch surf',PART_ID='p1' /
&FACE N=1095,93,94, SURF_ID='arch surf',PART_ID='p1' /
&FACE N=111,1134,1133, SURF_ID='arch surf',PART_ID='p1' /
&FACE N=112,104,103, SURF_ID='arch surf',PART_ID='p1' /
&FACE N=112,1133,1132, SURF_ID='arch surf',PART_ID='p1' /
&FACE N=113,105,104, SURF_ID='arch surf',PART_ID='p1' /
&FACE N=112,113,104, SURF_ID='arch surf',PART_ID='p1' /
&FACE N=1115,85,84, SURF_ID='arch surf',PART_ID='p1' /
&FACE N=84,77,76, SURF_ID='arch surf',PART_ID='p1' /
&FACE N=1179,1178,1171, SURF_ID='arch surf',PART_ID='p1' /
&FACE N=11,116,1138, SURF_ID='arch surf',PART_ID='p1' /
&FACE N=100,1121,1126, SURF_ID='arch surf',PART_ID='p1' /
&FACE N=9,11,107, SURF_ID='arch surf',PART_ID='p1' /
&FACE N=107,99,9, SURF_ID='arch surf',PART_ID='p1' /
&FACE N=1117,1116,1111, SURF_ID='arch surf',PART_ID='p1' /
&FACE N=6,97,1130, SURF_ID='arch surf',PART_ID='p1' /
&FACE N=4,6,74, SURF_ID='arch surf',PART_ID='p1' /
&FACE N=65,1250,66, SURF_ID='arch surf',PART_ID='p1' /
! ... 6444 like lines cut
  
&TAIL /
