&HEAD CHID='lvchid'/

! 3 in. resolution. Approximately 2 m to each side, 2 m above, and 2.4 m front and back.

&MESH ID='Cabinet',IJK=23,22,20,XB=-2.3622,-0.6096,-2.5146,-0.8382,0.0000,1.5240,MULT_ID='M1'/ 3 in. resolution
&MULT ID='M1',I_LOWER=-1,I_UPPER=2,DX=1.7526,J_UPPER=2,DY=1.6764,K_UPPER=2,DZ=1.5240/

&VENT MB='ZMAX',SURF_ID='OPEN'/
&VENT PBZ=0,SURF_ID='FLOOR'/
&VENT MB='YMAX',SURF_ID='OPEN'/
&VENT MB='XMAX',SURF_ID='OPEN'/
&VENT MB='YMIN',SURF_ID='OPEN'/
&VENT MB='XMIN',SURF_ID='OPEN'/

&MISC AEROSOL_AL2O3=T,I_MAX_TEMP=35000 /

! SMOKE3D_SPEC_ID sets the species used by Smokeview to visualize smoke

&DUMP SUPPRESS_DIAGNOSTICS=F,MASS_FILE=T/

&SM3D QUANTITY='DENSITY', SPEC_ID='3dsmoke' /

! Turns off the extinction model. Default values in the model may not be appropriate for metal oxidation
&COMB SUPPRESSION=F /

! 0.01 kg/m3 greatly limits clipping of density.
&CLIP MINIMUM_DENSITY=0.01, MAXIMUM_TEMPERATURE=35000.,CLIP_DT_RESTRICTIONS_MAX=0 /

! These cases a very challenging for the pressure solver. The selected values seem to give enough pressure iterations to
! drop the velocity error down to a plateau value.

&PRES MAX_PRESSURE_ITERATIONS=30, VELOCITY_TOLERANCE=0.001, SUSPEND_PRESSURE_ITERATIONS=F/

! For ZOI runs suggest T_END = arc time + 8 s

&TIME T_END=tend, DT=0.001,WALL_INCREMENT=1 /

&RADI NUMBER_RADIATION_ANGLES=500 /

! 1 cell thick OBST to help out pressure solver.

&OBST XB=-0.6858,0.0000,-0.6096,0.6096,2.3622,2.4384,SURF_ID='CABINET'/
&OBST XB=-1.6764,-0.6858,-0.6096,0.6096,2.2098,2.2860,SURF_ID='CABINET'/

&OBST XB=-1.6764,0.0000,-0.6096,-0.5334,0.0000,2.2098,SURF_ID='CABINET'/
&OBST XB=-0.6858,0.0000,-0.6096,-0.5334,2.2098,2.3622,SURF_ID='CABINET'/
&OBST XB=-1.1430,-0.6858,-0.6096,-0.5334,2.2098,2.2860,SURF_ID='CABINET'/
&OBST XB=-1.6764,0.0000,0.5334,0.6096,0.0000,2.2098,SURF_ID='CABINET'/
&OBST XB=-0.6858,0.0000,0.5334,0.6096,2.2098,2.3622,SURF_ID='CABINET'/
&OBST XB=-1.1430,-0.6858,0.5334,0.6096,2.2098,2.2860,SURF_ID='CABINET'/

&OBST XB=-1.7526,-1.6764,-0.6096,0.6096,0.0000,2.2860,SURF_ID='CABINET'/

&OBST XB=-0.0762,0.0000,-0.6096,0.6096,0.0000,2.3622,SURF_ID='CABINET'/

&OBST XB=-0.6858,0.0000,-0.0762,0.0000,0.0000,2.3622,SURF_ID='CABINET'/
&OBST XB=-1.6764,-0.6858,-0.0762,0.0000,0.0000,2.2098,SURF_ID='CABINET'/
&OBST XB=-0.7620,-0.6858,-0.6096,0.6096,0.0000,2.4384,SURF_ID='CABINET'/
&OBST XB=-1.2192,-1.1430,-0.6096,0.6096,0.0000,2.2098,SURF_ID='CABINET'/
&OBST XB=-0.6096,-0.0762,-0.4572,-0.1524,0.0000,0.5334,SURF_ID='BREAKER'/
&OBST XB=-0.6096,-0.0762,0.0762,0.4572,0.0000,0.5334,SURF_ID='BREAKER'/
&OBST XB=-0.6096,-0.0762,-0.4572,-0.1524,0.6096,1.1430,SURF_ID='BREAKER'/
&OBST XB=-0.6096,-0.0762,-0.4572,-0.1524,1.2192,1.7526,SURF_ID='BREAKER'/
&OBST XB=-0.6096,-0.0762,-0.4572,-0.1524,1.8288,2.2860,SURF_ID='BREAKER'/
&OBST XB=-0.6096,-0.0762,0.0762,0.4572,0.6096,1.1430,SURF_ID='BREAKER'/
&OBST XB=-0.6096,-0.0762,0.0762,0.4572,1.2192,1.7526,SURF_ID='BREAKER'/
&OBST XB=-0.6096,-0.0762,0.0762,0.4572,1.8288,2.2860,SURF_ID='BREAKER'/
&OBST XB=-0.0762,0.0000,-0.5334,0.5334,0.6096,0.6858,SURF_ID='CABINET'/
&OBST XB=-0.0762,0.0000,-0.5334,0.5334,1.2192,1.2954,SURF_ID='CABINET'/
&OBST XB=-0.0762,0.0000,-0.5334,0.5334,1.8288,1.9050,SURF_ID='CABINET'/
&HOLE XB=-1.2202,-1.1420,0.2286,0.3048,2.1336,2.2098/
&HOLE XB=-1.2202,-1.1420,-0.3048,-0.2286,2.1336,2.2098/

&HOLE XB=-0.6096,-0.5334,0.3810,0.4572,2.3612,2.4394/
&HOLE XB=-0.3810,-0.2286,0.3810,0.4572,2.3612,2.4394/
&HOLE XB=-0.6096,-0.5334,-0.4572,-0.3810,2.3612,2.4394/
&HOLE XB=-0.3810,-0.2286,-0.4572,-0.3810,2.3612,2.4394/
&HOLE XB=-0.6096,-0.5334,0.2286,0.3048,2.3612,2.4394/
&HOLE XB=-0.3810,-0.2286,0.2286,0.3048,2.3612,2.4394/
&HOLE XB=-0.6096,-0.5334,-0.3048,-0.2286,2.3612,2.4394/
&HOLE XB=-0.3810,-0.2286,-0.3048,-0.2286,2.3612,2.4394/
&HOLE XB=-0.6096,-0.5334,0.0762,0.1524,2.3612,2.4394/
&HOLE XB=-0.3810,-0.2286,0.0762,0.1524,2.3612,2.4394/
&HOLE XB=-0.6096,-0.5334,-0.1524,-0.0762,2.3612,2.4394/
&HOLE XB=-0.3810,-0.2286,-0.1524,-0.0762,2.3612,2.4394/

&HOLE XB=-1.7536,-1.6754,-0.4572,-0.0762,0.0762,0.1524/
&HOLE XB=-1.7536,-1.6754,-0.4572,-0.0762,0.2286,0.3048/
&HOLE XB=-1.7536,-1.6754,-0.4572,-0.0762,1.9050,1.9812/
&HOLE XB=-1.7536,-1.6754,-0.4572,-0.0762,2.0574,2.1336/
&HOLE XB=-1.7536,-1.6754,0.0762,0.4572,0.0762,0.1524/
&HOLE XB=-1.7536,-1.6754,0.0762,0.4572,0.2286,0.3048/
&HOLE XB=-1.7536,-1.6754,0.0762,0.4572,1.9050,1.9812/
&HOLE XB=-1.7536,-1.6754,0.0762,0.4572,2.0574,2.1336/

holedoor XB=doorx1,doorx2,doory1,doory2,doorz1,doorz2/Door
holearc XB=arcx1,arcx2,arcy1,arcy2,arcz1,arcz2/ ARC

! RADCAL_ID='SOOT' makes the SPEC use the SOOT radiation properties which the MISC line has changed to those for AL2O3
! RAMPs used instead of built in cp data for N2, CO2, and O2 to extend temperature to 20,000 K

&SPEC ID='WET NITROGEN',BACKGROUND=T,SPEC_ID='NITROGEN','CARBON DIOXIDE','WATER VAPOR',MASS_FRACTION=1,0.000775,0.007792/FDS Default AIR without O2
&SPEC ID='NITROGEN', LUMPED_COMPONENT_ONLY=T,RAMP_CP='N2 C'/
&SPEC ID='CARBON DIOXIDE', LUMPED_COMPONENT_ONLY=T,RAMP_CP='CO2 C'/
&SPEC ID='WATER VAPOR', LUMPED_COMPONENT_ONLY=T /
&SPEC ID='OXYGEN', MASS_FRACTION_0=0.230997,RAMP_CP='O2 C' /
alspec1 ID='ALUMINUM',FORMULA='Al',RAMP_CP='AL C',SIGMALJ=2.655,EPSILONKLJ=2750.,PR_GAS=1/
alspec2 ID='ALUMINUM OXIDE',FORMULA='Al2O3',RAMP_CP='AL2O3 C',SIGMALJ=3.186,EPSILONKLJ=557.449,PR_GAS=1,RADCAL_ID='SOOT'/
cuspec1 ID='COPPER',FORMULA='Cu',RAMP_CP='CU C',SIGMALJ=5.058,EPSILONKLJ=2983.,PR_GAS=1/
cuspec2 ID='COPPER OXIDE',FORMULA='Cu2O',SPECIFIC_HEAT=0.7,SIGMALJ=5.403,PR_GAS=1,RADCAL_ID='SOOT'/C from JANAF, LJ take as CuO

alreac FUEL='ALUMINUM', SPEC_ID_NU='ALUMINUM','OXYGEN','ALUMINUM OXIDE', NU=-2,-1.5,1, HEAT_OF_COMBUSTION=31100. / Al -> AL2O3
cureac FUEL='COPPER',SPEC_ID_NU='COPPER','OXYGEN','COPPER OXIDE',NU=-2,-0.5,1,HEAT_OF_COMBUSTION=1340./ Cu->Cu2O

&MATL ID='CONCRETE', DENSITY=2400, CONDUCTIVITY=1.6, SPECIFIC_HEAT=0.75, EMISSIVITY=0.95 /

! Non-melting steel
&MATL ID='INERT STEEL', DENSITY=7800., SPECIFIC_HEAT_RAMP='STEEL C', CONDUCTIVITY_RAMP='STEEL K', EMISSIVITY=0.85/

! Melting steel
&MATL ID='STEEL', DENSITY=7800., SPECIFIC_HEAT_RAMP='STEEL C', CONDUCTIVITY_RAMP='STEEL K', EMISSIVITY=0.85,
      REFERENCE_TEMPERATURE=1300., HEAT_OF_REACTION(1)=250., A(1)=0.6, E(1)=0., N_S(1)=0., N_T(1)=1. /

! Eurocode values
&RAMP ID='STEEL C',T=20,F=0.440/
&RAMP ID='STEEL C',T=600,F=0.760/
&RAMP ID='STEEL C',T=700,F=1.008/
&RAMP ID='STEEL C',T=720,F=1.388/
&RAMP ID='STEEL C',T=725,F=1.666/
&RAMP ID='STEEL C',T=730,F=2.291/
&RAMP ID='STEEL C',T=735,F=5.000/
&RAMP ID='STEEL C',T=740,F=2.525/ BCC -> FCC Transition
&RAMP ID='STEEL C',T=745,F=1.818/
&RAMP ID='STEEL C',T=750,F=1.483/
&RAMP ID='STEEL C',T=800,F=0.803/
&RAMP ID='STEEL C',T=900,F=0.650/

&RAMP ID='STEEL K',T=20,F=53.3/
&RAMP ID='STEEL K',T=800,F=27.3/

&SURF ID='BREAKER', MATL_ID='INERT STEEL', THICKNESS=0.02, RGB=204,204,255,CELL_SIZE_FACTOR=0.05,STRETCH_FACTOR=1 /
&SURF ID='CABINET', MATL_ID='STEEL', THICKNESS=0.002381,  COLOR='GRAY 60', BURN_AWAY=.TRUE.,CELL_SIZE_FACTOR=0.05,STRETCH_FACTOR=1 /
&SURF ID='FLOOR', MATL_ID='CONCRETE', THICKNESS=0.15, RGB=50,50,50, DEFAULT=T /

almatl1 ID='MOLTEN AL',DENSITY=2375,CONDUCTIVITY=100.,SPECIFIC_HEAT=1.177,EMISSIVITY=0,A=3.333,E=0,
N_REACTIONS=1,HEAT_OF_REACTION=0,HEAT_OF_COMBUSTION=0,MATL_ID(1,1)='MOLTEN AL2',SPEC_ID(1,1)='ALUMINUM',NU_MATL(1,1)=0.25,NU_SPEC(1,1)=0.75/
almatl2 ID='MOLTEN AL2',DENSITY=593.75,SPEC_ID='ALUMINUM',NU_SPEC=1,CONDUCTIVITY=100.,SPECIFIC_HEAT=1.177/

alsurf1 ID='AL DROP',MATL_ID='MOLTEN AL',GEOMETRY='SPHERICAL',THICKNESS=5.E-6,HEAT_TRANSFER_COEFFICIENT=0,TMP_INNER=665.3/
alpart1 ID='AL DROPS',SURF_ID='AL DROP',AGE=2.0,SAMPLING_FACTOR=10,MONODISPERSE=T,RGB=100,100,100/
alprop1 ID='DROPS',PART_ID='AL DROPS',FLOW_RAMP='RAMP MF',MASS_FLOW_RATE=almfr,PARTICLES_PER_SECOND=20000,PARTICLE_VELOCITY=10,SPRAY_ANGLE=0,60,OFFSET=0.05/

cumatl1 ID='MOLTEN CU',DENSITY=8960,CONDUCTIVITY=340.,SPECIFIC_HEAT=0.517,EMISSIVITY=0,A=3.333,E=0,
N_REACTIONS=1,HEAT_OF_REACTION=0,HEAT_OF_COMBUSTION=0,MATL_ID(1,1)='MOLTEN CU2',SPEC_ID(1,1)='COPPER',NU_MATL(1,1)=0.75,NU_SPEC(1,1)=0.25/
cumatl2 ID='MOLTEN CU2',DENSITY=7168,CONDUCTIVITY=340.,SPECIFIC_HEAT=0.517,EMISSIVITY=0/

cusurf1 ID='CU DROP',MATL_ID='MOLTEN CU',GEOMETRY='SPHERICAL',THICKNESS=5.E-6,HEAT_TRANSFER_COEFFICIENT=0,TMP_INNER=1084.85/
cupart1 ID='CU DROPS',SURF_ID='CU DROP',AGE=2.0,SAMPLING_FACTOR=10,MONODISPERSE=T,RGB=184,115,51/
cuprop1 ID='DROPS',PART_ID='CU DROPS',FLOW_RAMP='RAMP MF',MASS_FLOW_RATE=cumfr,PARTICLES_PER_SECOND=20000,PARTICLE_VELOCITY=10,SPRAY_ANGLE=0,60,OFFSET=0.05/

&INIT XB=initx1,initx2,inity1,inity2,initz1,initz2,HRRPUV=hrrpuvval,RAMP_Q='RAMP Q',RADIATIVE_FRACTION=radfrac/

! One spray nozzle device per electrode that inject liquid droplets

&DEVC PROP_ID='DROPS',XYZ=nozx1,nozy1,nozz1,QUANTITY='TIME',SETPOINT=0.0,ORIENTATION=orient1,orient2,orient3/
&DEVC PROP_ID='DROPS',XYZ=nozx2,nozy2,nozz2,QUANTITY='TIME',SETPOINT=0.0,ORIENTATION=orient1,orient2,orient3/
&DEVC PROP_ID='DROPS',XYZ=nozx3,nozy3,nozz3,QUANTITY='TIME',SETPOINT=0.0,ORIENTATION=orient1,orient2,orient3/

&RAMP ID='RAMP Q',T=0.0,F=0.0000/
&RAMP ID='RAMP Q',T=0.1,F=1.0000/
&RAMP ID='RAMP Q',T=rampt1,F=1.0000/
&RAMP ID='RAMP Q',T=rampt2,F=rampq2/
&RAMP ID='RAMP Q',T=rampt3,F=rampq2/
&RAMP ID='RAMP Q',T=rampt4,F=0.0000/

&RAMP ID='RAMP MF', T= 0.0, F=0.0000/
&RAMP ID='RAMP MF', T=0.1, F=1.0000/
&RAMP ID='RAMP MF', T=rampt1, F=1.0000/
&RAMP ID='RAMP MF', T=rampt2, F=rampmf2/
&RAMP ID='RAMP MF', T=rampt3, F=rampmf2/
&RAMP ID='RAMP MF', T=rampt4, F=0.0000/

! Gas phase specific heats. FDS defaults for N2, O2, H2O, and CO2 replaced to extend values to higher temperatures than present in FDS

&RAMP ID='AL2O3 C', T=-73, F=0.761/ NASA TP-2002-211556
&RAMP ID='AL2O3 C', T=127, F=0.921/
&RAMP ID='AL2O3 C', T=327, F=0.999/
&RAMP ID='AL2O3 C', T=527, F=1.038/
&RAMP ID='AL2O3 C', T=727, F=1.058/
&RAMP ID='AL2O3 C', T=1727, F=1.090/
&RAMP ID='AL2O3 C', T=2727, F=1.096/
&RAMP ID='AL2O3 C', T=3727, F=1.098/
&RAMP ID='AL2O3 C', T=4727, F=1.099/
&RAMP ID='AL2O3 C', T=5727, F=1.100/

&RAMP ID='AL C', T=-73, F=0.820/ NASA TP-2002-211556
&RAMP ID='AL C', T=127, F=0.783/
&RAMP ID='AL C', T=327, F=0.776/
&RAMP ID='AL C', T=527, F=0.773/
&RAMP ID='AL C', T=727, F=0.772/
&RAMP ID='AL C', T=1727, F=0.771/
&RAMP ID='AL C', T=2727, F=0.771/
&RAMP ID='AL C', T=3727, F=0.775/
&RAMP ID='AL C', T=4727, F=0.793/
&RAMP ID='AL C', T=5727, F=0.841/
&RAMP ID='AL C', T=6727, F=0.930/
&RAMP ID='AL C', T=7727, F=1.034/
&RAMP ID='AL C', T=8727, F=1.130/
&RAMP ID='AL C', T=9727, F=1.204/
&RAMP ID='AL C', T=10727, F=1.250/
&RAMP ID='AL C', T=11727, F=1.271/
&RAMP ID='AL C', T=12727, F=1.269/
&RAMP ID='AL C', T=13727, F=1.252/
&RAMP ID='AL C', T=14727, F=1.226/
&RAMP ID='AL C', T=15727, F=1.196/
&RAMP ID='AL C', T=16727, F=1.168/
&RAMP ID='AL C', T=17727, F=1.145/
&RAMP ID='AL C', T=18727, F=1.125/
&RAMP ID='AL C', T=19727, F=1.108/

&RAMP ID='CU C', T=-73, F=0.327/ NASA TP-2002-211556
&RAMP ID='CU C', T=127, F=0.327/
&RAMP ID='CU C', T=327, F=0.327/
&RAMP ID='CU C', T=527, F=0.327/
&RAMP ID='CU C', T=727, F=0.327/
&RAMP ID='CU C', T=1727, F=0.337/
&RAMP ID='CU C', T=2727, F=0.396/
&RAMP ID='CU C', T=3727, F=0.471/
&RAMP ID='CU C', T=4727, F=0.517/
&RAMP ID='CU C', T=5727, F=0.537/
&RAMP ID='CU C', T=6727, F=0.551/
&RAMP ID='CU C', T=7727, F=0.577/
&RAMP ID='CU C', T=8727, F=0.606/
&RAMP ID='CU C', T=9727, F=0.633/
&RAMP ID='CU C', T=10727, F=0.653/
&RAMP ID='CU C', T=11727, F=0.663/
&RAMP ID='CU C', T=12727, F=0.664/
&RAMP ID='CU C', T=13727, F=0.657/
&RAMP ID='CU C', T=14727, F=0.642/
&RAMP ID='CU C', T=15727, F=0.622/
&RAMP ID='CU C', T=16727, F=0.599/
&RAMP ID='CU C', T=17727, F=0.574/
&RAMP ID='CU C', T=18727, F=0.550/
&RAMP ID='CU C', T=19727, F=0.528/

&RAMP ID='N2 C', T=-73, F=1.039/ NASA TP-2002-211556
&RAMP ID='N2 C', T=127, F=1.044/
&RAMP ID='N2 C', T=327, F=1.075/
&RAMP ID='N2 C', T=527, F=1.122/
&RAMP ID='N2 C', T=727, F=1.167/
&RAMP ID='N2 C', T=1727, F=1.284/
&RAMP ID='N2 C', T=2727, F=1.322/
&RAMP ID='N2 C', T=3727, F=1.340/
&RAMP ID='N2 C', T=4727, F=1.354/
&RAMP ID='N2 C', T=5727, F=1.371/
&RAMP ID='N2 C', T=6727, F=1.402/
&RAMP ID='N2 C', T=7727, F=1.454/
&RAMP ID='N2 C', T=8727, F=1.544/
&RAMP ID='N2 C', T=9727, F=1.670/
&RAMP ID='N2 C', T=10727, F=1.822/
&RAMP ID='N2 C', T=11727, F=1.984/
&RAMP ID='N2 C', T=12727, F=2.136/
&RAMP ID='N2 C', T=13727, F=2.261/
&RAMP ID='N2 C', T=14727, F=2.346/
&RAMP ID='N2 C', T=15727, F=2.383/
&RAMP ID='N2 C', T=16727, F=2.372/
&RAMP ID='N2 C', T=17727, F=2.320/
&RAMP ID='N2 C', T=18727, F=2.241/
&RAMP ID='N2 C', T=19727, F=2.159/

&RAMP ID='O2 C', T=-73, F=0.910/ NASA TP-2002-211556
&RAMP ID='O2 C', T=127, F=0.941/
&RAMP ID='O2 C', T=327, F=1.003/
&RAMP ID='O2 C', T=527, F=1.055/
&RAMP ID='O2 C', T=727, F=1.090/
&RAMP ID='O2 C', T=1727, F=1.181/
&RAMP ID='O2 C', T=2727, F=1.249/
&RAMP ID='O2 C', T=3727, F=1.303/
&RAMP ID='O2 C', T=4727, F=1.344/
&RAMP ID='O2 C', T=5727, F=1.373/
&RAMP ID='O2 C', T=6727, F=1.386/
&RAMP ID='O2 C', T=7727, F=1.376/
&RAMP ID='O2 C', T=8727, F=1.344/
&RAMP ID='O2 C', T=9727, F=1.296/
&RAMP ID='O2 C', T=10727, F=1.241/
&RAMP ID='O2 C', T=11727, F=1.184/
&RAMP ID='O2 C', T=12727, F=1.128/
&RAMP ID='O2 C', T=13727, F=1.077/
&RAMP ID='O2 C', T=14727, F=1.030/
&RAMP ID='O2 C', T=15727, F=0.989/
&RAMP ID='O2 C', T=16727, F=0.953/
&RAMP ID='O2 C', T=17727, F=0.922/
&RAMP ID='O2 C', T=18727, F=0.894/
&RAMP ID='O2 C', T=19727, F=0.870/

&RAMP ID='CO2 C', T=-73, F=0.735/ NASA TP-2002-211556
&RAMP ID='CO2 C', T=127, F=0.939/
&RAMP ID='CO2 C', T=327, F=1.075/
&RAMP ID='CO2 C', T=527, F=1.169/
&RAMP ID='CO2 C', T=727, F=1.234/
&RAMP ID='CO2 C', T=1727, F=1.371/
&RAMP ID='CO2 C', T=2727, F=1.412/
&RAMP ID='CO2 C', T=3727, F=1.436/
&RAMP ID='CO2 C', T=4727, F=1.466/
&RAMP ID='CO2 C', T=5727, F=1.517/
&RAMP ID='CO2 C', T=6727, F=1.595/
&RAMP ID='CO2 C', T=7727, F=1.694/
&RAMP ID='CO2 C', T=8727, F=1.797/
&RAMP ID='CO2 C', T=9727, F=1.888/
&RAMP ID='CO2 C', T=10727, F=1.957/
&RAMP ID='CO2 C', T=11727, F=2.000/
&RAMP ID='CO2 C', T=12727, F=2.019/
&RAMP ID='CO2 C', T=13727, F=2.020/
&RAMP ID='CO2 C', T=14727, F=2.007/
&RAMP ID='CO2 C', T=15727, F=1.987/
&RAMP ID='CO2 C', T=16727, F=1.965/
&RAMP ID='CO2 C', T=17727, F=1.944/
&RAMP ID='CO2 C', T=18727, F=1.924/
&RAMP ID='CO2 C', T=19727, F=1.905/

!Smokeview Outputs. Adjust PBY and PBX for center of arc volume.

alslcf1 QUANTITY='MASS FRACTION',SPEC_ID='ALUMINUM',CELL_CENTERED=.TRUE.,PBY=0.2668/
alslcf2 QUANTITY='MASS FRACTION',SPEC_ID='ALUMINUM OXIDE',CELL_CENTERED=.TRUE.,PBY=0.2668/
cuslcf1 QUANTITY='MASS FRACTION',SPEC_ID='COPPER',CELL_CENTERED=.TRUE.,PBY=0.2668/
cuslcf2 QUANTITY='MASS FRACTION',SPEC_ID='COPPER OXIDE',CELL_CENTERED=.TRUE.,PBY=0.2668/
&SLCF QUANTITY='MASS FRACTION',SPEC_ID='OXYGEN',CELL_CENTERED=.TRUE.,PBY=0.2668/
&SLCF QUANTITY='HRRPUV',CELL_CENTERED=.TRUE.,PBY=0.2668/
&SLCF QUANTITY='HRRPUV',CELL_CENTERED=.TRUE.,PBX=slcfpbx/
&SLCF QUANTITY='TEMPERATURE',CELL_CENTERED=.TRUE.,PBY=0.2668/
&SLCF QUANTITY='TEMPERATURE',CELL_CENTERED=.TRUE.,PBX=slcfpbx/
&SLCF QUANTITY='INTEGRATED INTENSITY',CELL_CENTERED=.TRUE.,PBY=0.2668/
&SLCF QUANTITY='INTEGRATED INTENSITY',CELL_CENTERED=.TRUE.,PBX=slcfpbx/
&SLCF QUANTITY='VELOCITY',CELL_CENTERED=.TRUE.,PBY=0.2668/
&SLCF QUANTITY='U-VELOCITY',CELL_CENTERED=.TRUE.,PBY=0.2668/
&SLCF QUANTITY='VELOCITY',CELL_CENTERED=.TRUE.,PBX=slcfpbx/
&SLCF QUANTITY='V-VELOCITY',CELL_CENTERED=.TRUE.,PBX=slcfpbx/
&SLCF QUANTITY='PRESSURE',CELL_CENTERED=.TRUE.,PBY=0.2668/

&BNDF QUANTITY='WALL TEMPERATURE',CELL_CENTERED=.TRUE./
&BNDF QUANTITY='GAUGE HEAT FLUX',CELL_CENTERED=.TRUE./
&BNDF QUANTITY='WALL THICKNESS',CELL_CENTERED=.TRUE./

&DEVC XB=-0.1905,-0.1905,0.4191,0.4191,2.4003,4.5339,POINTS=28,ORIENTATION=0,0,-1,ID='T x:-0.1905 y:0.4191',QUANTITY='GAUGE HEAT FLUX GAS',STATISTICS_START=0,TEMPORAL_STATISTIC='TIME INTEGRAL'/
&DEVC XB=-0.1905,-0.1905,0.3429,0.3429,2.4003,4.5339,POINTS=28,ORIENTATION=0,0,-1,ID='T x:-0.1905 y:0.3429',QUANTITY='GAUGE HEAT FLUX GAS',STATISTICS_START=0,TEMPORAL_STATISTIC='TIME INTEGRAL',HIDE_COORDINATES=T/
&DEVC XB=-0.1905,-0.1905,0.2667,0.2667,2.4003,4.5339,POINTS=28,ORIENTATION=0,0,-1,ID='T x:-0.1905 y:0.2667',QUANTITY='GAUGE HEAT FLUX GAS',STATISTICS_START=0,TEMPORAL_STATISTIC='TIME INTEGRAL',HIDE_COORDINATES=T/
&DEVC XB=-0.1905,-0.1905,0.1905,0.1905,2.4003,4.5339,POINTS=28,ORIENTATION=0,0,-1,ID='T x:-0.1905 y:0.1905',QUANTITY='GAUGE HEAT FLUX GAS',STATISTICS_START=0,TEMPORAL_STATISTIC='TIME INTEGRAL',HIDE_COORDINATES=T/
&DEVC XB=-0.1905,-0.1905,0.1143,0.1143,2.4003,4.5339,POINTS=28,ORIENTATION=0,0,-1,ID='T x:-0.1905 y:0.1143',QUANTITY='GAUGE HEAT FLUX GAS',STATISTICS_START=0,TEMPORAL_STATISTIC='TIME INTEGRAL',HIDE_COORDINATES=T/
&DEVC XB=-0.2667,-0.2667,0.4191,0.4191,2.4003,4.5339,POINTS=28,ORIENTATION=0,0,-1,ID='T x:-0.2667 y:0.4191',QUANTITY='GAUGE HEAT FLUX GAS',STATISTICS_START=0,TEMPORAL_STATISTIC='TIME INTEGRAL',HIDE_COORDINATES=T/
&DEVC XB=-0.2667,-0.2667,0.3429,0.3429,2.4003,4.5339,POINTS=28,ORIENTATION=0,0,-1,ID='T x:-0.2667 y:0.3429',QUANTITY='GAUGE HEAT FLUX GAS',STATISTICS_START=0,TEMPORAL_STATISTIC='TIME INTEGRAL',HIDE_COORDINATES=T/
&DEVC XB=-0.2667,-0.2667,0.2667,0.2667,2.4003,4.5339,POINTS=28,ORIENTATION=0,0,-1,ID='T x:-0.2667 y:0.2667',QUANTITY='GAUGE HEAT FLUX GAS',STATISTICS_START=0,TEMPORAL_STATISTIC='TIME INTEGRAL',HIDE_COORDINATES=T/
&DEVC XB=-0.2667,-0.2667,0.1905,0.1905,2.4003,4.5339,POINTS=28,ORIENTATION=0,0,-1,ID='T x:-0.2667 y:0.1905',QUANTITY='GAUGE HEAT FLUX GAS',STATISTICS_START=0,TEMPORAL_STATISTIC='TIME INTEGRAL',HIDE_COORDINATES=T/
&DEVC XB=-0.2667,-0.2667,0.1143,0.1143,2.4003,4.5339,POINTS=28,ORIENTATION=0,0,-1,ID='T x:-0.2667 y:0.1143',QUANTITY='GAUGE HEAT FLUX GAS',STATISTICS_START=0,TEMPORAL_STATISTIC='TIME INTEGRAL',HIDE_COORDINATES=T/
&DEVC XB=-0.3429,-0.3429,0.4191,0.4191,2.4003,4.5339,POINTS=28,ORIENTATION=0,0,-1,ID='T x:-0.3429 y:0.4191',QUANTITY='GAUGE HEAT FLUX GAS',STATISTICS_START=0,TEMPORAL_STATISTIC='TIME INTEGRAL',HIDE_COORDINATES=T/
&DEVC XB=-0.3429,-0.3429,0.3429,0.3429,2.4003,4.5339,POINTS=28,ORIENTATION=0,0,-1,ID='T x:-0.3429 y:0.3429',QUANTITY='GAUGE HEAT FLUX GAS',STATISTICS_START=0,TEMPORAL_STATISTIC='TIME INTEGRAL',HIDE_COORDINATES=T/
&DEVC XB=-0.3429,-0.3429,0.2667,0.2667,2.4003,4.5339,POINTS=28,ORIENTATION=0,0,-1,ID='T x:-0.3429 y:0.2667',QUANTITY='GAUGE HEAT FLUX GAS',STATISTICS_START=0,TEMPORAL_STATISTIC='TIME INTEGRAL',HIDE_COORDINATES=T/
&DEVC XB=-0.3429,-0.3429,0.1905,0.1905,2.4003,4.5339,POINTS=28,ORIENTATION=0,0,-1,ID='T x:-0.3429 y:0.1905',QUANTITY='GAUGE HEAT FLUX GAS',STATISTICS_START=0,TEMPORAL_STATISTIC='TIME INTEGRAL',HIDE_COORDINATES=T/
&DEVC XB=-0.3429,-0.3429,0.1143,0.1143,2.4003,4.5339,POINTS=28,ORIENTATION=0,0,-1,ID='T x:-0.3429 y:0.1143',QUANTITY='GAUGE HEAT FLUX GAS',STATISTICS_START=0,TEMPORAL_STATISTIC='TIME INTEGRAL',HIDE_COORDINATES=T/
&DEVC XB=-0.4191,-0.4191,0.4191,0.4191,2.4003,4.5339,POINTS=28,ORIENTATION=0,0,-1,ID='T x:-0.4191 y:0.4191',QUANTITY='GAUGE HEAT FLUX GAS',STATISTICS_START=0,TEMPORAL_STATISTIC='TIME INTEGRAL',HIDE_COORDINATES=T/
&DEVC XB=-0.4191,-0.4191,0.3429,0.3429,2.4003,4.5339,POINTS=28,ORIENTATION=0,0,-1,ID='T x:-0.4191 y:0.3429',QUANTITY='GAUGE HEAT FLUX GAS',STATISTICS_START=0,TEMPORAL_STATISTIC='TIME INTEGRAL',HIDE_COORDINATES=T/
&DEVC XB=-0.4191,-0.4191,0.2667,0.2667,2.4003,4.5339,POINTS=28,ORIENTATION=0,0,-1,ID='T x:-0.4191 y:0.2667',QUANTITY='GAUGE HEAT FLUX GAS',STATISTICS_START=0,TEMPORAL_STATISTIC='TIME INTEGRAL',HIDE_COORDINATES=T/
&DEVC XB=-0.4191,-0.4191,0.1905,0.1905,2.4003,4.5339,POINTS=28,ORIENTATION=0,0,-1,ID='T x:-0.4191 y:0.1905',QUANTITY='GAUGE HEAT FLUX GAS',STATISTICS_START=0,TEMPORAL_STATISTIC='TIME INTEGRAL',HIDE_COORDINATES=T/
&DEVC XB=-0.4191,-0.4191,0.1143,0.1143,2.4003,4.5339,POINTS=28,ORIENTATION=0,0,-1,ID='T x:-0.4191 y:0.1143',QUANTITY='GAUGE HEAT FLUX GAS',STATISTICS_START=0,TEMPORAL_STATISTIC='TIME INTEGRAL',HIDE_COORDINATES=T/
&DEVC XB=-0.4953,-0.4953,0.4191,0.4191,2.4003,4.5339,POINTS=28,ORIENTATION=0,0,-1,ID='T x:-0.4953 y:0.4191',QUANTITY='GAUGE HEAT FLUX GAS',STATISTICS_START=0,TEMPORAL_STATISTIC='TIME INTEGRAL',HIDE_COORDINATES=T/
! ... 79 like lines cut

&DEVC XB=0.0381,1.9431,0.4191,0.4191,0.7239,0.7239,POINTS=25,ORIENTATION=-1,0,0,ID='F y:0.4191 z:0.7239',QUANTITY='GAUGE HEAT FLUX GAS',STATISTICS_START=0,TEMPORAL_STATISTIC='TIME INTEGRAL'/
&DEVC XB=0.0381,1.9431,0.4191,0.4191,0.8001,0.8001,POINTS=25,ORIENTATION=-1,0,0,ID='F y:0.4191 z:0.8001',QUANTITY='GAUGE HEAT FLUX GAS',STATISTICS_START=0,TEMPORAL_STATISTIC='TIME INTEGRAL',HIDE_COORDINATES=T/
&DEVC XB=0.0381,1.9431,0.4191,0.4191,0.8763,0.8763,POINTS=25,ORIENTATION=-1,0,0,ID='F y:0.4191 z:0.8763',QUANTITY='GAUGE HEAT FLUX GAS',STATISTICS_START=0,TEMPORAL_STATISTIC='TIME INTEGRAL',HIDE_COORDINATES=T/
&DEVC XB=0.0381,1.9431,0.4191,0.4191,0.9525,0.9525,POINTS=25,ORIENTATION=-1,0,0,ID='F y:0.4191 z:0.9525',QUANTITY='GAUGE HEAT FLUX GAS',STATISTICS_START=0,TEMPORAL_STATISTIC='TIME INTEGRAL',HIDE_COORDINATES=T/
&DEVC XB=0.0381,1.9431,0.4191,0.4191,1.0287,1.0287,POINTS=25,ORIENTATION=-1,0,0,ID='F y:0.4191 z:1.0287',QUANTITY='GAUGE HEAT FLUX GAS',STATISTICS_START=0,TEMPORAL_STATISTIC='TIME INTEGRAL',HIDE_COORDINATES=T/
&DEVC XB=0.0381,1.9431,0.4191,0.4191,1.1049,1.1049,POINTS=25,ORIENTATION=-1,0,0,ID='F y:0.4191 z:1.1049',QUANTITY='GAUGE HEAT FLUX GAS',STATISTICS_START=0,TEMPORAL_STATISTIC='TIME INTEGRAL',HIDE_COORDINATES=T/
&DEVC XB=0.0381,1.9431,0.4191,0.4191,1.1811,1.1811,POINTS=25,ORIENTATION=-1,0,0,ID='F y:0.4191 z:1.1811',QUANTITY='GAUGE HEAT FLUX GAS',STATISTICS_START=0,TEMPORAL_STATISTIC='TIME INTEGRAL',HIDE_COORDINATES=T/
&DEVC XB=0.0381,1.9431,0.4191,0.4191,1.2573,1.2573,POINTS=25,ORIENTATION=-1,0,0,ID='F y:0.4191 z:1.2573',QUANTITY='GAUGE HEAT FLUX GAS',STATISTICS_START=0,TEMPORAL_STATISTIC='TIME INTEGRAL',HIDE_COORDINATES=T/
&DEVC XB=0.0381,1.9431,0.4191,0.4191,1.3335,1.3335,POINTS=25,ORIENTATION=-1,0,0,ID='F y:0.4191 z:1.3335',QUANTITY='GAUGE HEAT FLUX GAS',STATISTICS_START=0,TEMPORAL_STATISTIC='TIME INTEGRAL',HIDE_COORDINATES=T/
&DEVC XB=0.0381,1.9431,0.4191,0.4191,1.4097,1.4097,POINTS=25,ORIENTATION=-1,0,0,ID='F y:0.4191 z:1.4097',QUANTITY='GAUGE HEAT FLUX GAS',STATISTICS_START=0,TEMPORAL_STATISTIC='TIME INTEGRAL',HIDE_COORDINATES=T/
&DEVC XB=0.0381,1.9431,0.4191,0.4191,1.4859,1.4859,POINTS=25,ORIENTATION=-1,0,0,ID='F y:0.4191 z:1.4859',QUANTITY='GAUGE HEAT FLUX GAS',STATISTICS_START=0,TEMPORAL_STATISTIC='TIME INTEGRAL',HIDE_COORDINATES=T/
&DEVC XB=0.0381,1.9431,0.4191,0.4191,1.5621,1.5621,POINTS=25,ORIENTATION=-1,0,0,ID='F y:0.4191 z:1.5621',QUANTITY='GAUGE HEAT FLUX GAS',STATISTICS_START=0,TEMPORAL_STATISTIC='TIME INTEGRAL',HIDE_COORDINATES=T/
&DEVC XB=0.0381,1.9431,0.4191,0.4191,1.6383,1.6383,POINTS=25,ORIENTATION=-1,0,0,ID='F y:0.4191 z:1.6383',QUANTITY='GAUGE HEAT FLUX GAS',STATISTICS_START=0,TEMPORAL_STATISTIC='TIME INTEGRAL',HIDE_COORDINATES=T/
&DEVC XB=0.0381,1.9431,0.4191,0.4191,1.7145,1.7145,POINTS=25,ORIENTATION=-1,0,0,ID='F y:0.4191 z:1.7145',QUANTITY='GAUGE HEAT FLUX GAS',STATISTICS_START=0,TEMPORAL_STATISTIC='TIME INTEGRAL',HIDE_COORDINATES=T/
&DEVC XB=0.0381,1.9431,0.4191,0.4191,1.7907,1.7907,POINTS=25,ORIENTATION=-1,0,0,ID='F y:0.4191 z:1.7907',QUANTITY='GAUGE HEAT FLUX GAS',STATISTICS_START=0,TEMPORAL_STATISTIC='TIME INTEGRAL',HIDE_COORDINATES=T/
&DEVC XB=0.0381,1.9431,0.4191,0.4191,1.8669,1.8669,POINTS=25,ORIENTATION=-1,0,0,ID='F y:0.4191 z:1.8669',QUANTITY='GAUGE HEAT FLUX GAS',STATISTICS_START=0,TEMPORAL_STATISTIC='TIME INTEGRAL',HIDE_COORDINATES=T/
&DEVC XB=0.0381,1.9431,0.4191,0.4191,1.9431,1.9431,POINTS=25,ORIENTATION=-1,0,0,ID='F y:0.4191 z:1.9431',QUANTITY='GAUGE HEAT FLUX GAS',STATISTICS_START=0,TEMPORAL_STATISTIC='TIME INTEGRAL',HIDE_COORDINATES=T/
&DEVC XB=0.0381,1.9431,0.4191,0.4191,2.0193,2.0193,POINTS=25,ORIENTATION=-1,0,0,ID='F y:0.4191 z:2.0193',QUANTITY='GAUGE HEAT FLUX GAS',STATISTICS_START=0,TEMPORAL_STATISTIC='TIME INTEGRAL',HIDE_COORDINATES=T/
&DEVC XB=0.0381,1.9431,0.4191,0.4191,2.0955,2.0955,POINTS=25,ORIENTATION=-1,0,0,ID='F y:0.4191 z:2.0955',QUANTITY='GAUGE HEAT FLUX GAS',STATISTICS_START=0,TEMPORAL_STATISTIC='TIME INTEGRAL',HIDE_COORDINATES=T/
&DEVC XB=0.0381,1.9431,0.4191,0.4191,2.1717,2.1717,POINTS=25,ORIENTATION=-1,0,0,ID='F y:0.4191 z:2.1717',QUANTITY='GAUGE HEAT FLUX GAS',STATISTICS_START=0,TEMPORAL_STATISTIC='TIME INTEGRAL',HIDE_COORDINATES=T/
&DEVC XB=0.0381,1.9431,0.4191,0.4191,2.2479,2.2479,POINTS=25,ORIENTATION=-1,0,0,ID='F y:0.4191 z:2.2479',QUANTITY='GAUGE HEAT FLUX GAS',STATISTICS_START=0,TEMPORAL_STATISTIC='TIME INTEGRAL',HIDE_COORDINATES=T/
! ... 141 like lines cut

&DEVC XB=-3.4671,-1.7907,0.4191,0.4191,0.0396,0.0396,POINTS=22,ORIENTATION=1,0,0,ID='B y:0.4191 z:0.0396',QUANTITY='GAUGE HEAT FLUX GAS',STATISTICS_START=0,TEMPORAL_STATISTIC='TIME INTEGRAL'/
&DEVC XB=-3.4671,-1.7907,0.4191,0.4191,0.1158,0.1158,POINTS=22,ORIENTATION=1,0,0,ID='B y:0.4191 z:0.1158',QUANTITY='GAUGE HEAT FLUX GAS',STATISTICS_START=0,TEMPORAL_STATISTIC='TIME INTEGRAL',HIDE_COORDINATES=T/
&DEVC XB=-3.4671,-1.7907,0.4191,0.4191,0.1920,0.1920,POINTS=22,ORIENTATION=1,0,0,ID='B y:0.4191 z:0.1920',QUANTITY='GAUGE HEAT FLUX GAS',STATISTICS_START=0,TEMPORAL_STATISTIC='TIME INTEGRAL',HIDE_COORDINATES=T/
&DEVC XB=-3.4671,-1.7907,0.4191,0.4191,0.2682,0.2682,POINTS=22,ORIENTATION=1,0,0,ID='B y:0.4191 z:0.2682',QUANTITY='GAUGE HEAT FLUX GAS',STATISTICS_START=0,TEMPORAL_STATISTIC='TIME INTEGRAL',HIDE_COORDINATES=T/
&DEVC XB=-3.4671,-1.7907,0.4191,0.4191,0.3444,0.3444,POINTS=22,ORIENTATION=1,0,0,ID='B y:0.4191 z:0.3444',QUANTITY='GAUGE HEAT FLUX GAS',STATISTICS_START=0,TEMPORAL_STATISTIC='TIME INTEGRAL',HIDE_COORDINATES=T/
&DEVC XB=-3.4671,-1.7907,0.4191,0.4191,0.4206,0.4206,POINTS=22,ORIENTATION=1,0,0,ID='B y:0.4191 z:0.4206',QUANTITY='GAUGE HEAT FLUX GAS',STATISTICS_START=0,TEMPORAL_STATISTIC='TIME INTEGRAL',HIDE_COORDINATES=T/
&DEVC XB=-3.4671,-1.7907,0.4191,0.4191,0.4968,0.4968,POINTS=22,ORIENTATION=1,0,0,ID='B y:0.4191 z:0.4968',QUANTITY='GAUGE HEAT FLUX GAS',STATISTICS_START=0,TEMPORAL_STATISTIC='TIME INTEGRAL',HIDE_COORDINATES=T/
&DEVC XB=-3.4671,-1.7907,0.4191,0.4191,0.5730,0.5730,POINTS=22,ORIENTATION=1,0,0,ID='B y:0.4191 z:0.5730',QUANTITY='GAUGE HEAT FLUX GAS',STATISTICS_START=0,TEMPORAL_STATISTIC='TIME INTEGRAL',HIDE_COORDINATES=T/
&DEVC XB=-3.4671,-1.7907,0.4191,0.4191,0.6492,0.6492,POINTS=22,ORIENTATION=1,0,0,ID='B y:0.4191 z:0.6492',QUANTITY='GAUGE HEAT FLUX GAS',STATISTICS_START=0,TEMPORAL_STATISTIC='TIME INTEGRAL',HIDE_COORDINATES=T/
&DEVC XB=-3.4671,-1.7907,0.4191,0.4191,0.7254,0.7254,POINTS=22,ORIENTATION=1,0,0,ID='B y:0.4191 z:0.7254',QUANTITY='GAUGE HEAT FLUX GAS',STATISTICS_START=0,TEMPORAL_STATISTIC='TIME INTEGRAL',HIDE_COORDINATES=T/
&DEVC XB=-3.4671,-1.7907,0.4191,0.4191,0.8016,0.8016,POINTS=22,ORIENTATION=1,0,0,ID='B y:0.4191 z:0.8016',QUANTITY='GAUGE HEAT FLUX GAS',STATISTICS_START=0,TEMPORAL_STATISTIC='TIME INTEGRAL',HIDE_COORDINATES=T/
&DEVC XB=-3.4671,-1.7907,0.4191,0.4191,0.8778,0.8778,POINTS=22,ORIENTATION=1,0,0,ID='B y:0.4191 z:0.8778',QUANTITY='GAUGE HEAT FLUX GAS',STATISTICS_START=0,TEMPORAL_STATISTIC='TIME INTEGRAL',HIDE_COORDINATES=T/
&DEVC XB=-3.4671,-1.7907,0.4191,0.4191,0.9540,0.9540,POINTS=22,ORIENTATION=1,0,0,ID='B y:0.4191 z:0.9540',QUANTITY='GAUGE HEAT FLUX GAS',STATISTICS_START=0,TEMPORAL_STATISTIC='TIME INTEGRAL',HIDE_COORDINATES=T/
&DEVC XB=-3.4671,-1.7907,0.4191,0.4191,1.0302,1.0302,POINTS=22,ORIENTATION=1,0,0,ID='B y:0.4191 z:1.0302',QUANTITY='GAUGE HEAT FLUX GAS',STATISTICS_START=0,TEMPORAL_STATISTIC='TIME INTEGRAL',HIDE_COORDINATES=T/
&DEVC XB=-3.4671,-1.7907,0.4191,0.4191,1.1064,1.1064,POINTS=22,ORIENTATION=1,0,0,ID='B y:0.4191 z:1.1064',QUANTITY='GAUGE HEAT FLUX GAS',STATISTICS_START=0,TEMPORAL_STATISTIC='TIME INTEGRAL',HIDE_COORDINATES=T/
&DEVC XB=-3.4671,-1.7907,0.4191,0.4191,1.1826,1.1826,POINTS=22,ORIENTATION=1,0,0,ID='B y:0.4191 z:1.1826',QUANTITY='GAUGE HEAT FLUX GAS',STATISTICS_START=0,TEMPORAL_STATISTIC='TIME INTEGRAL',HIDE_COORDINATES=T/
&DEVC XB=-3.4671,-1.7907,0.4191,0.4191,1.2588,1.2588,POINTS=22,ORIENTATION=1,0,0,ID='B y:0.4191 z:1.2588',QUANTITY='GAUGE HEAT FLUX GAS',STATISTICS_START=0,TEMPORAL_STATISTIC='TIME INTEGRAL',HIDE_COORDINATES=T/
&DEVC XB=-3.4671,-1.7907,0.4191,0.4191,1.3350,1.3350,POINTS=22,ORIENTATION=1,0,0,ID='B y:0.4191 z:1.3350',QUANTITY='GAUGE HEAT FLUX GAS',STATISTICS_START=0,TEMPORAL_STATISTIC='TIME INTEGRAL',HIDE_COORDINATES=T/
&DEVC XB=-3.4671,-1.7907,0.4191,0.4191,1.4112,1.4112,POINTS=22,ORIENTATION=1,0,0,ID='B y:0.4191 z:1.4112',QUANTITY='GAUGE HEAT FLUX GAS',STATISTICS_START=0,TEMPORAL_STATISTIC='TIME INTEGRAL',HIDE_COORDINATES=T/
&DEVC XB=-3.4671,-1.7907,0.4191,0.4191,1.4874,1.4874,POINTS=22,ORIENTATION=1,0,0,ID='B y:0.4191 z:1.4874',QUANTITY='GAUGE HEAT FLUX GAS',STATISTICS_START=0,TEMPORAL_STATISTIC='TIME INTEGRAL',HIDE_COORDINATES=T/
&DEVC XB=-3.4671,-1.7907,0.4191,0.4191,1.5636,1.5636,POINTS=22,ORIENTATION=1,0,0,ID='B y:0.4191 z:1.5636',QUANTITY='GAUGE HEAT FLUX GAS',STATISTICS_START=0,TEMPORAL_STATISTIC='TIME INTEGRAL',HIDE_COORDINATES=T/
! ... 207 like lines cut

&DEVC XB=-0.5715,-0.5715,0.6477,2.4765,0.7239,0.7239,POINTS=24,ORIENTATION=0,-1,0,ID='R x:-0.5715 z:0.7239',QUANTITY='GAUGE HEAT FLUX GAS',STATISTICS_START=0,TEMPORAL_STATISTIC='TIME INTEGRAL'/
&DEVC XB=-0.6477,-0.6477,0.6477,2.4765,0.7239,0.7239,POINTS=24,ORIENTATION=0,-1,0,ID='R x:-0.6477 z:0.7239',QUANTITY='GAUGE HEAT FLUX GAS',STATISTICS_START=0,TEMPORAL_STATISTIC='TIME INTEGRAL',HIDE_COORDINATES=T/
&DEVC XB=-0.7239,-0.7239,0.6477,2.4765,0.7239,0.7239,POINTS=24,ORIENTATION=0,-1,0,ID='R x:-0.7239 z:0.7239',QUANTITY='GAUGE HEAT FLUX GAS',STATISTICS_START=0,TEMPORAL_STATISTIC='TIME INTEGRAL',HIDE_COORDINATES=T/
&DEVC XB=-0.8001,-0.8001,0.6477,2.4765,0.7239,0.7239,POINTS=24,ORIENTATION=0,-1,0,ID='R x:-0.8001 z:0.7239',QUANTITY='GAUGE HEAT FLUX GAS',STATISTICS_START=0,TEMPORAL_STATISTIC='TIME INTEGRAL',HIDE_COORDINATES=T/
&DEVC XB=-0.8763,-0.8763,0.6477,2.4765,0.7239,0.7239,POINTS=24,ORIENTATION=0,-1,0,ID='R x:-0.8763 z:0.7239',QUANTITY='GAUGE HEAT FLUX GAS',STATISTICS_START=0,TEMPORAL_STATISTIC='TIME INTEGRAL',HIDE_COORDINATES=T/
&DEVC XB=-0.9525,-0.9525,0.6477,2.4765,0.7239,0.7239,POINTS=24,ORIENTATION=0,-1,0,ID='R x:-0.9525 z:0.7239',QUANTITY='GAUGE HEAT FLUX GAS',STATISTICS_START=0,TEMPORAL_STATISTIC='TIME INTEGRAL',HIDE_COORDINATES=T/
&DEVC XB=-1.0287,-1.0287,0.6477,2.4765,0.7239,0.7239,POINTS=24,ORIENTATION=0,-1,0,ID='R x:-1.0287 z:0.7239',QUANTITY='GAUGE HEAT FLUX GAS',STATISTICS_START=0,TEMPORAL_STATISTIC='TIME INTEGRAL',HIDE_COORDINATES=T/
&DEVC XB=-1.1049,-1.1049,0.6477,2.4765,0.7239,0.7239,POINTS=24,ORIENTATION=0,-1,0,ID='R x:-1.1049 z:0.7239',QUANTITY='GAUGE HEAT FLUX GAS',STATISTICS_START=0,TEMPORAL_STATISTIC='TIME INTEGRAL',HIDE_COORDINATES=T/
&DEVC XB=-1.1811,-1.1811,0.6477,2.4765,0.7239,0.7239,POINTS=24,ORIENTATION=0,-1,0,ID='R x:-1.1811 z:0.7239',QUANTITY='GAUGE HEAT FLUX GAS',STATISTICS_START=0,TEMPORAL_STATISTIC='TIME INTEGRAL',HIDE_COORDINATES=T/
&DEVC XB=-1.2573,-1.2573,0.6477,2.4765,0.7239,0.7239,POINTS=24,ORIENTATION=0,-1,0,ID='R x:-1.2573 z:0.7239',QUANTITY='GAUGE HEAT FLUX GAS',STATISTICS_START=0,TEMPORAL_STATISTIC='TIME INTEGRAL',HIDE_COORDINATES=T/
&DEVC XB=-1.3335,-1.3335,0.6477,2.4765,0.7239,0.7239,POINTS=24,ORIENTATION=0,-1,0,ID='R x:-1.3335 z:0.7239',QUANTITY='GAUGE HEAT FLUX GAS',STATISTICS_START=0,TEMPORAL_STATISTIC='TIME INTEGRAL',HIDE_COORDINATES=T/
&DEVC XB=-1.4097,-1.4097,0.6477,2.4765,0.7239,0.7239,POINTS=24,ORIENTATION=0,-1,0,ID='R x:-1.4097 z:0.7239',QUANTITY='GAUGE HEAT FLUX GAS',STATISTICS_START=0,TEMPORAL_STATISTIC='TIME INTEGRAL',HIDE_COORDINATES=T/
&DEVC XB=-1.4859,-1.4859,0.6477,2.4765,0.7239,0.7239,POINTS=24,ORIENTATION=0,-1,0,ID='R x:-1.4859 z:0.7239',QUANTITY='GAUGE HEAT FLUX GAS',STATISTICS_START=0,TEMPORAL_STATISTIC='TIME INTEGRAL',HIDE_COORDINATES=T/
&DEVC XB=-1.5621,-1.5621,0.6477,2.4765,0.7239,0.7239,POINTS=24,ORIENTATION=0,-1,0,ID='R x:-1.5621 z:0.7239',QUANTITY='GAUGE HEAT FLUX GAS',STATISTICS_START=0,TEMPORAL_STATISTIC='TIME INTEGRAL',HIDE_COORDINATES=T/
&DEVC XB=-1.6383,-1.6383,0.6477,2.4765,0.7239,0.7239,POINTS=24,ORIENTATION=0,-1,0,ID='R x:-1.6383 z:0.7239',QUANTITY='GAUGE HEAT FLUX GAS',STATISTICS_START=0,TEMPORAL_STATISTIC='TIME INTEGRAL',HIDE_COORDINATES=T/
&DEVC XB=-0.5715,-0.5715,0.6477,2.4765,0.8001,0.8001,POINTS=24,ORIENTATION=0,-1,0,ID='R x:-0.5715 z:0.8001',QUANTITY='GAUGE HEAT FLUX GAS',STATISTICS_START=0,TEMPORAL_STATISTIC='TIME INTEGRAL',HIDE_COORDINATES=T/
&DEVC XB=-0.6477,-0.6477,0.6477,2.4765,0.8001,0.8001,POINTS=24,ORIENTATION=0,-1,0,ID='R x:-0.6477 z:0.8001',QUANTITY='GAUGE HEAT FLUX GAS',STATISTICS_START=0,TEMPORAL_STATISTIC='TIME INTEGRAL',HIDE_COORDINATES=T/
&DEVC XB=-0.7239,-0.7239,0.6477,2.4765,0.8001,0.8001,POINTS=24,ORIENTATION=0,-1,0,ID='R x:-0.7239 z:0.8001',QUANTITY='GAUGE HEAT FLUX GAS',STATISTICS_START=0,TEMPORAL_STATISTIC='TIME INTEGRAL',HIDE_COORDINATES=T/
&DEVC XB=-0.8001,-0.8001,0.6477,2.4765,0.8001,0.8001,POINTS=24,ORIENTATION=0,-1,0,ID='R x:-0.8001 z:0.8001',QUANTITY='GAUGE HEAT FLUX GAS',STATISTICS_START=0,TEMPORAL_STATISTIC='TIME INTEGRAL',HIDE_COORDINATES=T/
&DEVC XB=-0.8763,-0.8763,0.6477,2.4765,0.8001,0.8001,POINTS=24,ORIENTATION=0,-1,0,ID='R x:-0.8763 z:0.8001',QUANTITY='GAUGE HEAT FLUX GAS',STATISTICS_START=0,TEMPORAL_STATISTIC='TIME INTEGRAL',HIDE_COORDINATES=T/
&DEVC XB=-0.9525,-0.9525,0.6477,2.4765,0.8001,0.8001,POINTS=24,ORIENTATION=0,-1,0,ID='R x:-0.9525 z:0.8001',QUANTITY='GAUGE HEAT FLUX GAS',STATISTICS_START=0,TEMPORAL_STATISTIC='TIME INTEGRAL',HIDE_COORDINATES=T/
! ... 219 like lines cut

&DEVC XB=-1.7145,-0.0381,-0.6477,-0.6477,0.7239,0.7239,POINTS=22,ORIENTATION=0,1,0,ID='L y:-0.6477 z:0.7239',QUANTITY='GAUGE HEAT FLUX GAS',STATISTICS_START=0,TEMPORAL_STATISTIC='TIME INTEGRAL'/
&DEVC XB=-1.7145,-0.0381,-0.6477,-0.6477,0.8001,0.8001,POINTS=22,ORIENTATION=0,1,0,ID='L y:-0.6477 z:0.8001',QUANTITY='GAUGE HEAT FLUX GAS',STATISTICS_START=0,TEMPORAL_STATISTIC='TIME INTEGRAL',HIDE_COORDINATES=T/
&DEVC XB=-1.7145,-0.0381,-0.6477,-0.6477,0.8763,0.8763,POINTS=22,ORIENTATION=0,1,0,ID='L y:-0.6477 z:0.8763',QUANTITY='GAUGE HEAT FLUX GAS',STATISTICS_START=0,TEMPORAL_STATISTIC='TIME INTEGRAL',HIDE_COORDINATES=T/
&DEVC XB=-1.7145,-0.0381,-0.6477,-0.6477,0.9525,0.9525,POINTS=22,ORIENTATION=0,1,0,ID='L y:-0.6477 z:0.9525',QUANTITY='GAUGE HEAT FLUX GAS',STATISTICS_START=0,TEMPORAL_STATISTIC='TIME INTEGRAL',HIDE_COORDINATES=T/
&DEVC XB=-1.7145,-0.0381,-0.6477,-0.6477,1.0287,1.0287,POINTS=22,ORIENTATION=0,1,0,ID='L y:-0.6477 z:1.0287',QUANTITY='GAUGE HEAT FLUX GAS',STATISTICS_START=0,TEMPORAL_STATISTIC='TIME INTEGRAL',HIDE_COORDINATES=T/
&DEVC XB=-1.7145,-0.0381,-0.6477,-0.6477,1.1049,1.1049,POINTS=22,ORIENTATION=0,1,0,ID='L y:-0.6477 z:1.1049',QUANTITY='GAUGE HEAT FLUX GAS',STATISTICS_START=0,TEMPORAL_STATISTIC='TIME INTEGRAL',HIDE_COORDINATES=T/
&DEVC XB=-1.7145,-0.0381,-0.6477,-0.6477,1.1811,1.1811,POINTS=22,ORIENTATION=0,1,0,ID='L y:-0.6477 z:1.1811',QUANTITY='GAUGE HEAT FLUX GAS',STATISTICS_START=0,TEMPORAL_STATISTIC='TIME INTEGRAL',HIDE_COORDINATES=T/
&DEVC XB=-1.7145,-0.0381,-0.6477,-0.6477,1.2573,1.2573,POINTS=22,ORIENTATION=0,1,0,ID='L y:-0.6477 z:1.2573',QUANTITY='GAUGE HEAT FLUX GAS',STATISTICS_START=0,TEMPORAL_STATISTIC='TIME INTEGRAL',HIDE_COORDINATES=T/
&DEVC XB=-1.7145,-0.0381,-0.6477,-0.6477,1.3335,1.3335,POINTS=22,ORIENTATION=0,1,0,ID='L y:-0.6477 z:1.3335',QUANTITY='GAUGE HEAT FLUX GAS',STATISTICS_START=0,TEMPORAL_STATISTIC='TIME INTEGRAL',HIDE_COORDINATES=T/
&DEVC XB=-1.7145,-0.0381,-0.6477,-0.6477,1.4097,1.4097,POINTS=22,ORIENTATION=0,1,0,ID='L y:-0.6477 z:1.4097',QUANTITY='GAUGE HEAT FLUX GAS',STATISTICS_START=0,TEMPORAL_STATISTIC='TIME INTEGRAL',HIDE_COORDINATES=T/
&DEVC XB=-1.7145,-0.0381,-0.6477,-0.6477,1.4859,1.4859,POINTS=22,ORIENTATION=0,1,0,ID='L y:-0.6477 z:1.4859',QUANTITY='GAUGE HEAT FLUX GAS',STATISTICS_START=0,TEMPORAL_STATISTIC='TIME INTEGRAL',HIDE_COORDINATES=T/
&DEVC XB=-1.7145,-0.0381,-0.6477,-0.6477,1.5621,1.5621,POINTS=22,ORIENTATION=0,1,0,ID='L y:-0.6477 z:1.5621',QUANTITY='GAUGE HEAT FLUX GAS',STATISTICS_START=0,TEMPORAL_STATISTIC='TIME INTEGRAL',HIDE_COORDINATES=T/
&DEVC XB=-1.7145,-0.0381,-0.6477,-0.6477,1.6383,1.6383,POINTS=22,ORIENTATION=0,1,0,ID='L y:-0.6477 z:1.6383',QUANTITY='GAUGE HEAT FLUX GAS',STATISTICS_START=0,TEMPORAL_STATISTIC='TIME INTEGRAL',HIDE_COORDINATES=T/
&DEVC XB=-1.7145,-0.0381,-0.6477,-0.6477,1.7145,1.7145,POINTS=22,ORIENTATION=0,1,0,ID='L y:-0.6477 z:1.7145',QUANTITY='GAUGE HEAT FLUX GAS',STATISTICS_START=0,TEMPORAL_STATISTIC='TIME INTEGRAL',HIDE_COORDINATES=T/
&DEVC XB=-1.7145,-0.0381,-0.6477,-0.6477,1.7907,1.7907,POINTS=22,ORIENTATION=0,1,0,ID='L y:-0.6477 z:1.7907',QUANTITY='GAUGE HEAT FLUX GAS',STATISTICS_START=0,TEMPORAL_STATISTIC='TIME INTEGRAL',HIDE_COORDINATES=T/
&DEVC XB=-1.7145,-0.0381,-0.6477,-0.6477,1.8669,1.8669,POINTS=22,ORIENTATION=0,1,0,ID='L y:-0.6477 z:1.8669',QUANTITY='GAUGE HEAT FLUX GAS',STATISTICS_START=0,TEMPORAL_STATISTIC='TIME INTEGRAL',HIDE_COORDINATES=T/
&DEVC XB=-1.7145,-0.0381,-0.6477,-0.6477,1.9431,1.9431,POINTS=22,ORIENTATION=0,1,0,ID='L y:-0.6477 z:1.9431',QUANTITY='GAUGE HEAT FLUX GAS',STATISTICS_START=0,TEMPORAL_STATISTIC='TIME INTEGRAL',HIDE_COORDINATES=T/
&DEVC XB=-1.7145,-0.0381,-0.6477,-0.6477,2.0193,2.0193,POINTS=22,ORIENTATION=0,1,0,ID='L y:-0.6477 z:2.0193',QUANTITY='GAUGE HEAT FLUX GAS',STATISTICS_START=0,TEMPORAL_STATISTIC='TIME INTEGRAL',HIDE_COORDINATES=T/
&DEVC XB=-1.7145,-0.0381,-0.6477,-0.6477,2.0955,2.0955,POINTS=22,ORIENTATION=0,1,0,ID='L y:-0.6477 z:2.0955',QUANTITY='GAUGE HEAT FLUX GAS',STATISTICS_START=0,TEMPORAL_STATISTIC='TIME INTEGRAL',HIDE_COORDINATES=T/
&DEVC XB=-1.7145,-0.0381,-0.6477,-0.6477,2.1717,2.1717,POINTS=22,ORIENTATION=0,1,0,ID='L y:-0.6477 z:2.1717',QUANTITY='GAUGE HEAT FLUX GAS',STATISTICS_START=0,TEMPORAL_STATISTIC='TIME INTEGRAL',HIDE_COORDINATES=T/
&DEVC XB=-1.7145,-0.0381,-0.6477,-0.6477,2.2479,2.2479,POINTS=22,ORIENTATION=0,1,0,ID='L y:-0.6477 z:2.2479',QUANTITY='GAUGE HEAT FLUX GAS',STATISTICS_START=0,TEMPORAL_STATISTIC='TIME INTEGRAL',HIDE_COORDINATES=T/

&TAIL /
