&HEAD CHID='voltest5' TITLE='volume rendering test case'

&MULT ID='mesh array', DX=0.75,DY=0.75,DZ=1.0, I_UPPER=3,J_UPPER=3,K_UPPER=3 /
&MESH IJK=48,48,32, XB=-1.5,-0.75,-1.5,-0.75,-.0625,0.9375, MULT_ID='mesh array' /

&TIME T_END=20. /
&MISC TMPA=12.
      P_INF=80600./
&PRES MAX_PRESSURE_ITERATIONS=2/

&REAC FUEL='METHANE'
      HEAT_OF_COMBUSTION=50611.
      CRITICAL_FLAME_TEMPERATURE=1207 
      SOOT_YIELD=0.01 /

&DUMP SIG_FIGS=4, SIG_FIGS_EXP=2 NFRAMES=600, DT_SL3D=0.03333 /
&MATL ID='STEEL', CONDUCTIVITY=54., SPECIFIC_HEAT=0.465, DENSITY=7850., EMISSIVITY=0.9 /
&SURF ID='PLATE', COLOR='GRAY', DEFAULT=.TRUE., MATL_ID='STEEL', THICKNESS=0.025 /

&SURF ID='POOL',MASS_FLUX(1)=0.04,SPEC_ID(1)='METHANE',TMP_FRONT=11. /

&VENT XB=-0.5,0.5,-0.5,0.5,-.0625,-.0625,COLOR='BLUE',SURF_ID='POOL'/

&VENT XB=-1.5,-.5,-1.5,1.5,-.0625,-.0625,SURF_ID='OPEN'/
&VENT XB=.5,1.5,-1.5,1.5,-.0625,-.0625,SURF_ID='OPEN'/
&VENT XB=-1.5,1.5,-1.5,-.5,-.0625,-.0625,SURF_ID='OPEN'/
&VENT XB=-1.5,1.5,.5,1.5,-.0625,-.0625,SURF_ID='OPEN'/

&VENT MB='ZMAX',SURF_ID='OPEN'/
&VENT MB='YMIN',SURF_ID='OPEN'/
&VENT MB='YMAX',SURF_ID='OPEN'/
&VENT MB='XMIN',SURF_ID='OPEN'/
&VENT MB='XMAX',SURF_ID='OPEN'/

&SLCF PBY=-.0625, QUANTITY='VELOCITY', VECTOR=.TRUE. /
&SLCF PBY=-.0625, QUANTITY='DENSITY', CELL_CENTERED=.TRUE. /
&SLCF PBY=-.0625, QUANTITY='TEMPERATURE', CELL_CENTERED=.TRUE. /
&SLCF PBY=-.0625, QUANTITY='HRRPUV', CELL_CENTERED=.TRUE. /
&SLCF PBY=-.0625, QUANTITY='MASS FRACTION', SPEC_ID='METHANE', CELL_CENTERED=.TRUE. /
&SLCF PBY=-.0625, QUANTITY='TURBULENCE RESOLUTION', CELL_CENTERED=.TRUE. /
&SLCF PBY=-.0625, QUANTITY='WAVELET ERROR', QUANTITY2='MASS FRACTION', SPEC_ID='METHANE', CELL_CENTERED=.TRUE. /

&SLCF XB=-1.5,1.5,-1.5,1.5,-0.06,3.94, QUANTITY='TEMPERATURE' / 3D slice
&SLCF XB=-1.5,1.5,-1.5,1.5,-0.06,3.94, QUANTITY='DENSITY',SPEC_ID='SOOT' / 3D slice

&OBST XB=-0.70711,0.70711,-0.70711,0.70711,-0.0625,0 /
&OBST XB=-0.70711,0.70711,-0.70711,0.70711,-0.0625,0 /
&OBST XB=-0.69211,0.69211,-0.7218,0.7218,-0.0625,0 /
&OBST XB=-0.7218,0.7218,-0.69211,0.69211,-0.0625,0 /
&OBST XB=-0.67711,0.67711,-0.73588,0.73588,-0.0625,0 /
&OBST XB=-0.73588,0.73588,-0.67711,0.67711,-0.0625,0 /
&OBST XB=-0.66211,0.66211,-0.74941,0.74941,-0.0625,0 /
&OBST XB=-0.74941,0.74941,-0.66211,0.66211,-0.0625,0 /
&OBST XB=-0.64711,0.64711,-0.7624,0.7624,-0.0625,0 /
&OBST XB=-0.7624,0.7624,-0.64711,0.64711,-0.0625,0 /
&OBST XB=-0.63211,0.63211,-0.77488,0.77488,-0.0625,0 /
&OBST XB=-0.77488,0.77488,-0.63211,0.63211,-0.0625,0 /
&OBST XB=-0.61711,0.61711,-0.78688,0.78688,-0.0625,0 /
&OBST XB=-0.78688,0.78688,-0.61711,0.61711,-0.0625,0 /
&OBST XB=-0.60211,0.60211,-0.79842,0.79842,-0.0625,0 /
&OBST XB=-0.79842,0.79842,-0.60211,0.60211,-0.0625,0 /
&OBST XB=-0.58711,0.58711,-0.80951,0.80951,-0.0625,0 /
&OBST XB=-0.80951,0.80951,-0.58711,0.58711,-0.0625,0 /
&OBST XB=-0.57211,0.57211,-0.82018,0.82018,-0.0625,0 /
&OBST XB=-0.82018,0.82018,-0.57211,0.57211,-0.0625,0 /
! ... 76 like lines cut

&HOLE XB=-0.35355,0.35355,-0.35355,0.35355,-.125,.1/
&HOLE XB=-0.35355,0.35355,-0.35355,0.35355,-.125,.1/
&HOLE XB=-0.33755,0.33755,-0.36886,0.36886,-.125,.1/
&HOLE XB=-0.36886,0.36886,-0.33755,0.33755,-.125,.1/
&HOLE XB=-0.32155,0.32155,-0.38289,0.38289,-.125,.1/
&HOLE XB=-0.38289,0.38289,-0.32155,0.32155,-.125,.1/
&HOLE XB=-0.30555,0.30555,-0.39577,0.39577,-.125,.1/
&HOLE XB=-0.39577,0.39577,-0.30555,0.30555,-.125,.1/
&HOLE XB=-0.28955,0.28955,-0.40763,0.40763,-.125,.1/
&HOLE XB=-0.40763,0.40763,-0.28955,0.28955,-.125,.1/
&HOLE XB=-0.27355,0.27355,-0.41853,0.41853,-.125,.1/
&HOLE XB=-0.41853,0.41853,-0.27355,0.27355,-.125,.1/
&HOLE XB=-0.25755,0.25755,-0.42856,0.42856,-.125,.1/
&HOLE XB=-0.42856,0.42856,-0.25755,0.25755,-.125,.1/
&HOLE XB=-0.24155,0.24155,-0.43778,0.43778,-.125,.1/
&HOLE XB=-0.43778,0.43778,-0.24155,0.24155,-.125,.1/
&HOLE XB=-0.22555,0.22555,-0.44623,0.44623,-.125,.1/
&HOLE XB=-0.44623,0.44623,-0.22555,0.22555,-.125,.1/
&HOLE XB=-0.20955,0.20955,-0.45397,0.45397,-.125,.1/
&HOLE XB=-0.45397,0.45397,-0.20955,0.20955,-.125,.1/
! ... 26 like lines cut

&TAIL /

