&HEAD CHID='PRISME_LK_2_Upper', TITLE='PRISME Test' / 

&MESH IJK=12,9,9, XB=-.30,0.30,-.225,0.225,-.225,0.225 / 

&TIME DT=0.2, T_END=2000.0 / 

&MISC TMPA=30. /

&SURF ID='HOT', DEFAULT=.TRUE., TMP_FRONT=1030., COLOR='GRAY', RAMP_T='shroud' / 
&RAMP ID='shroud',T=   0.,F=0. /
&RAMP ID='shroud',T=  12.,F=0.001 /
&RAMP ID='shroud',T=  65.,F=0.056 /
&RAMP ID='shroud',T= 140.,F=0.177 /
&RAMP ID='shroud',T= 280.,F=0.348 /
&RAMP ID='shroud',T= 425.,F=0.434 /
&RAMP ID='shroud',T= 550.,F=0.446 /
&RAMP ID='shroud',T= 740.,F=0.570 /
&RAMP ID='shroud',T= 880.,F=0.638 /
&RAMP ID='shroud',T=1085.,F=0.594 /
&RAMP ID='shroud',T=1225.,F=0.470 /
&RAMP ID='shroud',T=1380.,F=0.281 /
&RAMP ID='shroud',T=2000.,F=0.114 /
 
&VENT XB=-.30,-.30,-.075,0.075,-.075,0.075,SURF_ID='OPEN' /  
&VENT XB=0.30,0.30,-.075,0.075,-.075,0.075,SURF_ID='OPEN' / 

&DUMP DT_DEVC=10. /

&MATL ID='VTT_1 plastic', DENSITY=1959., CONDUCTIVITY=0.2, SPECIFIC_HEAT=1.5 /
&SURF ID='VTT_1 shape', THICKNESS=0.0065, LENGTH=0.1, MATL_ID='VTT_1 plastic', GEOMETRY='CYLINDRICAL' /
&PART ID='VTT_1 particle', SURF_ID='VTT_1 shape', ORIENTATION=0,0,1, STATIC=.TRUE., PROP_ID='VTT_1 picture' /
&PROP ID='VTT_1 picture', SMOKEVIEW_ID='TUBE', SMOKEVIEW_PARAMETERS='L=0.1','D=0.013' /
&INIT ID='VTT_1 position', XYZ=0.01,,0.,,0., N_PARTICLES=1, PART_ID='VTT_1 particle' /

&MATL ID='GRS_1 plastic', DENSITY=2034., CONDUCTIVITY=0.2, SPECIFIC_HEAT=1.5 /
&SURF ID='GRS_1 shape', THICKNESS=0.008, LENGTH=0.1, MATL_ID='GRS_1 plastic', GEOMETRY='CYLINDRICAL' /
&PART ID='GRS_1 particle', SURF_ID='GRS_1 shape', ORIENTATION=0,0,1, STATIC=.TRUE., PROP_ID='GRS_1 picture' /
&PROP ID='GRS_1 picture', SMOKEVIEW_ID='TUBE', SMOKEVIEW_PARAMETERS='L=0.1','D=0.016' /
&INIT ID='GRS_1 position', XYZ=0.01,,0.,,0., N_PARTICLES=1, PART_ID='GRS_1 particle' /

&MATL ID='NRC_1 plastic', DENSITY=2320., CONDUCTIVITY=0.2, SPECIFIC_HEAT=1.5 /
&SURF ID='NRC_1 shape', THICKNESS=0.0075, LENGTH=0.1, MATL_ID='NRC_1 plastic', GEOMETRY='CYLINDRICAL' /
&PART ID='NRC_1 particle', SURF_ID='NRC_1 shape', ORIENTATION=0,0,1, STATIC=.TRUE., PROP_ID='NRC_1 picture' /
&PROP ID='NRC_1 picture', SMOKEVIEW_ID='TUBE', SMOKEVIEW_PARAMETERS='L=0.1','D=0.015' /
&INIT ID='NRC_1 position', XYZ=0.01,,0.,,0., N_PARTICLES=1, PART_ID='NRC_1 particle' /

&MATL ID='IRSN_2 plastic', DENSITY=1832., CONDUCTIVITY=0.2, SPECIFIC_HEAT=1.5 /
&SURF ID='IRSN_2 shape', THICKNESS=0.007, LENGTH=0.1, MATL_ID='IRSN_2 plastic', GEOMETRY='CYLINDRICAL' /
&PART ID='IRSN_2 particle', SURF_ID='IRSN_2 shape', ORIENTATION=0,0,1, STATIC=.TRUE., PROP_ID='IRSN_2 picture' /
&PROP ID='IRSN_2 picture', SMOKEVIEW_ID='TUBE', SMOKEVIEW_PARAMETERS='L=0.1','D=0.014' /
&INIT ID='IRSN_2 position', XYZ=0.01,,0.,,0., N_PARTICLES=1, PART_ID='IRSN_2 particle' /

&MATL ID='TRAC_1 plastic', DENSITY=2070., CONDUCTIVITY=0.2, SPECIFIC_HEAT=1.5 /
&SURF ID='TRAC_1 shape', THICKNESS=0.00615, LENGTH=0.1, MATL_ID='TRAC_1 plastic', GEOMETRY='CYLINDRICAL' /
&PART ID='TRAC_1 particle', SURF_ID='TRAC_1 shape', ORIENTATION=0,0,1, STATIC=.TRUE., PROP_ID='TRAC_1 picture' /
&PROP ID='TRAC_1 picture', SMOKEVIEW_ID='TUBE', SMOKEVIEW_PARAMETERS='L=0.1','D=0.0123' /
&INIT ID='TRAC_1 position', XYZ=0.01,,0.,,0., N_PARTICLES=1, PART_ID='TRAC_1 particle' /

&DEVC XYZ=0.00,0.00,0.225, IOR=-3, ID='Air Temp', QUANTITY='WALL TEMPERATURE' /
&DEVC XYZ=0.01,0.00,0.000, ID='VTT_1', INIT_ID='VTT_1 position', QUANTITY='INSIDE WALL TEMPERATURE', DEPTH=0.002 /
&DEVC XYZ=0.01,0.00,0.000, ID='GRS_1', INIT_ID='GRS_1 position', QUANTITY='INSIDE WALL TEMPERATURE', DEPTH=0.002 /
&DEVC XYZ=0.01,0.00,0.000, ID='NRC_1', INIT_ID='NRC_1 position', QUANTITY='INSIDE WALL TEMPERATURE', DEPTH=0.0015 /
&DEVC XYZ=0.01,0.00,0.000, ID='IRSN_2', INIT_ID='IRSN_2 position', QUANTITY='INSIDE WALL TEMPERATURE', DEPTH=0.002 /
&DEVC XYZ=0.01,0.00,0.000, ID='TRAC_1', INIT_ID='TRAC_1 position', QUANTITY='INSIDE WALL TEMPERATURE', DEPTH=0.003 /

&TAIL /
