&HEAD CHID='ASTM_E_648_25', TITLE='Flooring Radiant Panel Apparatus, 1 cm, 25% Moisture, 550 degrees, Hot Walls, Mass Flux, Multi-Mesh'/

MESH IJK=140,20,80, XB=0.00,1.40,-0.25,0.25,-0.09,0.71 /

&MESH ID='1', IJK=35,26,40, XB=0.00,0.35,-0.25,0.01,-0.09,0.31/
&MESH ID='2', IJK=35,24,40, XB=0.00,0.35,0.01,0.25,-0.09,0.31/
&MESH ID='3', IJK=35,26,40, XB=0.00,0.35,-0.25,0.01,0.31,0.71/
&MESH ID='4', IJK=35,24,40, XB=0.00,0.35,0.01,0.25,0.31,0.71/
&MESH ID='5', IJK=35,26,40, XB=0.35,0.70,-0.25,0.01,-0.09,0.31/
&MESH ID='6', IJK=35,24,40, XB=0.35,0.70,0.01,0.25,-0.09,0.31/
&MESH ID='7', IJK=35,26,40, XB=0.35,0.70,-0.25,0.01,0.31,0.71/
&MESH ID='8', IJK=35,24,40, XB=0.35,0.70,0.01,0.25,0.31,0.71/
&MESH ID='9', IJK=35,26,40, XB=0.70,1.05,-0.25,0.01,-0.09,0.31/
&MESH ID='10', IJK=35,24,40, XB=0.70,1.05,0.01,0.25,-0.09,0.31/
&MESH ID='11', IJK=35,26,40, XB=0.70,1.05,-0.25,0.01,0.31,0.71/
&MESH ID='12', IJK=35,24,40, XB=0.70,1.05,0.01,0.25,0.31,0.71/
&MESH ID='13', IJK=35,26,40, XB=1.05,1.40,-0.25,0.01,-0.09,0.31/
&MESH ID='14', IJK=35,24,40, XB=1.05,1.40,0.01,0.25,-0.09,0.31/
&MESH ID='15', IJK=35,26,40, XB=1.05,1.40,-0.25,0.01,0.31,0.71/
&MESH ID='16', IJK=35,24,40, XB=1.05,1.40,0.01,0.25,0.31,0.71/


&TIME T_BEGIN= -4000.0, T_END = 3000.0 /

&MISC SURF_DEFAULT='Marinite'/

&INIT XB= 0.00,1.40,-0.25,0.25,-0.09,0.71, TEMPERATURE= 100./

Radiant Panels

&MULT ID='30 degrees', DXB=-.01,-.01,0.00,0.00,0.0058,0.0058, N_LOWER=0, N_UPPER=40 /

&OBST XB= 1.35, 1.36,-0.15, 0.15, 0.14, 0.18, SURF_IDS='SHEET METAL','SHEET METAL','PANEL', MULT_ID='30 degrees' /  

Line Burners

&SURF ID='Burner_1', COLOR='ORANGE', HRRPUA=400., RAMP_Q = 'fire_ramp_1' /
&OBST XB= 1.350, 1.370, -.15, 0.15, 0.01, 0.02, SURF_IDS='Burner_1','SHEET METAL','SHEET METAL' /  

&RAMP ID='fire_ramp_1', T= 0.0,   F=0.0 /
&RAMP ID='fire_ramp_1', T= 5.0,   F=1.0 /
&RAMP ID='fire_ramp_1', T= 300.0, F=1.0 /
&RAMP ID='fire_ramp_1', T= 305.0, F=0.0 /

&SURF ID='Burner_2', COLOR='ORANGE', HRRPUA=400., RAMP_Q = 'fire_ramp_2' /
&OBST XB= 1.300, 1.320, -.15, 0.15, 0.01, 0.02, SURF_IDS='Burner_2','SHEET METAL','SHEET METAL' /  

&RAMP ID='fire_ramp_2', T= 0.0,   F=0.0 /
&RAMP ID='fire_ramp_2', T= 305.0, F=0.0 /
&RAMP ID='fire_ramp_2', T= 306.0, F=1.0 /
&RAMP ID='fire_ramp_2', T= 605.0, F=1.0 /
&RAMP ID='fire_ramp_2', T= 606.0, F=0.0 /


Specimen

&REAC ID                    = 'Whatever'
      C                     = 2.
      H                     = 2.
      SOOT_YIELD            = 0.1 /

&MATL ID                    = 'Green Carpet'
      CONDUCTIVITY          = 0.2
      SPECIFIC_HEAT         = 1.8
      DENSITY               = 546.
      N_REACTIONS           = 1
      HEAT_OF_REACTION      = 450.
      HEAT_OF_COMBUSTION    = 22700.
	A		    = 2.3E12
	E		    = 1.75E5
      RESIDUE               = 'CHAR'
      NU_RESIDUE            = 0.51
      NU_FUEL               = 0.49 /

&MATL ID                    = 'water'
      CONDUCTIVITY          = 0.2
      SPECIFIC_HEAT         = 4.184
      DENSITY               = 1000.
      N_REACTIONS           = 1
      HEAT_OF_REACTION      = 2500.
      REFERENCE_TEMPERATURE = 100.
      PYROLYSIS_RANGE       = 10.
      HEATING_RATE          = 5.
      NU_WATER              = 1.0 /

&MATL ID                    = 'CHAR'
      CONDUCTIVITY          = 0.25
      SPECIFIC_HEAT         = 1.5
      DENSITY               = 500. /

&SURF ID                    = 'Specimen'
      COLOR                 = 'IVORY BLACK'
      THICKNESS             = 0.0059
      MATL_ID(1,1:2)        = 'Green Carpet','water'      
      MATL_MASS_FRACTION(1,1:2) = 0.75,0.25
      BACKING               = 'INSULATED' /

Holder

&MATL ID            = 'STEEL'
      FYI           = 'Quintiere, Fire Behavior'
      EMISSIVITY    = 0.8
      DENSITY       = 7850.
      CONDUCTIVITY  = 45.8
      SPECIFIC_HEAT = 0.46 /

&SURF ID        = 'SHEET METAL'
      MATL_ID   = 'STEEL'
      COLOR     = 'GRAY 50'
      BACKING   = 'EXPOSED'
      THICKNESS = 0.0013 
      TMP_INNER = 50.0/

Panel


&MATL ID            = 'BRICK'
      FYI           = 'FDS MANUAL'
      EMISSIVITY    = 1.0
      DENSITY       = 1600.
      CONDUCTIVITY  = 0.69
      SPECIFIC_HEAT = 0.84
      N_REACTIONS           = 1
      HEAT_OF_REACTION      = -361000.
	 A		    = 1.0E-06
	 E		    = 0.
	 NU_FUEL       = 1.0 /

&SURF ID        = 'PANEL'
      MATL_ID   = 'BRICK'
      COLOR     = 'PINK'
      BACKING   = 'INSULATED'
      THICKNESS = 0.05 
      TMP_INNER = 800.0/


&OBST XB= 0.10, 1.30,-0.15, 0.15,-0.02, 0.00, SURF_IDS='Specimen','Marinite','Marinite', DEVC_ID='timer' /

&DEVC XYZ=0.0,0.0,0.0, ID='timer', SETPOINT= 0.0, QUANTITY='TIME', INITIAL_STATE=.FALSE./ 1

&OBST XB= 0.10, 1.30,-0.15, 0.15,-0.02, 0.00, SURF_IDS='INERT','INERT','INERT', DEVC_ID='timer2' /

&DEVC XYZ=0.0,0.0,0.0, ID='timer2', SETPOINT= 0.0, QUANTITY='TIME', INITIAL_STATE=.TRUE./ 2

&OBST XB= 0.05, 1.35,-0.20, 0.20,-0.05,-0.02, SURF_ID='Marinite' /


Walls

&MATL ID            = 'Calcium Silicate'
      DENSITY       = 740.
      CONDUCTIVITY  = 0.128
      SPECIFIC_HEAT = 1. /

&SURF ID='Marinite'
      MATL_ID='Calcium Silicate'
      THICKNESS=0.013
      COLOR='BEIGE' /

External Boundaries

&VENT MB='ZMIN', SURF_ID='OPEN' /

&SURF ID='EXHAUST', MASS_FLUX_TOTAL= 1.53, COLOR='BLUE' /
&VENT XB=0.050,0.150,-0.190,0.190,0.710,0.710, SURF_ID='EXHAUST' /


Output

&DEVC XYZ=0.25,0.0,0.69, QUANTITY='THERMOCOUPLE', ID='TC-1' / 3
&DEVC XYZ=1.15,0.0,0.256, QUANTITY='WALL TEMPERATURE', IOR=-3, ID='TC-2' / 4

&DEVC XYZ=0.1,0.0,0.700, QUANTITY='W-VELOCITY', ID='VENT VELOCITY' / 5

&DEVC XYZ=1.2,0.0,0.0, QUANTITY='GAUGE HEAT FLUX', IOR=3, ID='HFG_1' / 6
&DEVC XYZ=1.1,0.0,0.0, QUANTITY='GAUGE HEAT FLUX', IOR=3, ID='HFG_2' /7
&DEVC XYZ=1.0,0.0,0.0, QUANTITY='GAUGE HEAT FLUX', IOR=3, ID='HFG_3' /8
&DEVC XYZ=0.9,0.0,0.0, QUANTITY='GAUGE HEAT FLUX', IOR=3, ID='HFG_4' /9
&DEVC XYZ=0.8,0.0,0.0, QUANTITY='GAUGE HEAT FLUX', IOR=3, ID='HFG_5' /10
&DEVC XYZ=0.71,0.0,0.0, QUANTITY='GAUGE HEAT FLUX', IOR=3, ID='HFG_6' /11
&DEVC XYZ=0.6,0.0,0.0, QUANTITY='GAUGE HEAT FLUX', IOR=3, ID='HFG_7' /12
&DEVC XYZ=0.5,0.0,0.0, QUANTITY='GAUGE HEAT FLUX', IOR=3, ID='HFG_8' /13
&DEVC XYZ=0.4,0.0,0.0, QUANTITY='GAUGE HEAT FLUX', IOR=3, ID='HFG_9' /14
&DEVC XYZ=0.3,0.0,0.0, QUANTITY='GAUGE HEAT FLUX', IOR=3, ID='HFG_10' /15

&DEVC XYZ=1.2,0.0,0.0, QUANTITY='SURFACE DENSITY', IOR=3, ID='Density, 1.2 m'/16
&DEVC XYZ=1.19,0.0,0.0, QUANTITY='SURFACE DENSITY', IOR=3, ID='Density, 1.19 m'/17
&DEVC XYZ=1.18,0.0,0.0, QUANTITY='SURFACE DENSITY', IOR=3, ID='Density, 1.18 m'/18
&DEVC XYZ=1.17,0.0,0.0, QUANTITY='SURFACE DENSITY', IOR=3, ID='Density, 1.17 m'/19
&DEVC XYZ=1.16,0.0,0.0, QUANTITY='SURFACE DENSITY', IOR=3, ID='Density, 1.16 m'/20
&DEVC XYZ=1.15,0.0,0.0, QUANTITY='SURFACE DENSITY', IOR=3, ID='Density, 1.15 m'/21
&DEVC XYZ=1.14,0.0,0.0, QUANTITY='SURFACE DENSITY', IOR=3, ID='Density, 1.14 m'/22
&DEVC XYZ=1.13,0.0,0.0, QUANTITY='SURFACE DENSITY', IOR=3, ID='Density, 1.13 m'/23
&DEVC XYZ=1.12,0.0,0.0, QUANTITY='SURFACE DENSITY', IOR=3, ID='Density, 1.12 m'/24
&DEVC XYZ=1.11,0.0,0.0, QUANTITY='SURFACE DENSITY', IOR=3, ID='Density, 1.11 m'/25
&DEVC XYZ=1.1,0.0,0.0, QUANTITY='SURFACE DENSITY', IOR=3, ID='Density, 1.1 m'/26
&DEVC XYZ=1.09,0.0,0.0, QUANTITY='SURFACE DENSITY', IOR=3, ID='Density, 1.09 m'/27
&DEVC XYZ=1.08,0.0,0.0, QUANTITY='SURFACE DENSITY', IOR=3, ID='Density, 1.08 m'/28
&DEVC XYZ=1.07,0.0,0.0, QUANTITY='SURFACE DENSITY', IOR=3, ID='Density, 1.07 m'/29
&DEVC XYZ=1.06,0.0,0.0, QUANTITY='SURFACE DENSITY', IOR=3, ID='Density, 1.06 m'/30
&DEVC XYZ=1.051,0.0,0.0, QUANTITY='SURFACE DENSITY', IOR=3, ID='Density, 1.05 m'/31
&DEVC XYZ=1.04,0.0,0.0, QUANTITY='SURFACE DENSITY', IOR=3, ID='Density, 1.04 m'/32
&DEVC XYZ=1.03,0.0,0.0, QUANTITY='SURFACE DENSITY', IOR=3, ID='Density, 1.03 m'/33
&DEVC XYZ=1.02,0.0,0.0, QUANTITY='SURFACE DENSITY', IOR=3, ID='Density, 1.02 m'/34
&DEVC XYZ=1.01,0.0,0.0, QUANTITY='SURFACE DENSITY', IOR=3, ID='Density, 1.01 m'/35
! ... 35 like lines cut


Line Output

&DEVC XB=0.105,1.295,0.0,0.0,0.0,0.0, POINTS=120, QUANTITY='SURFACE DENSITY', IOR=3, ID='Mass per Area' / 71
&DEVC XB=0.11,1.21,0.0,0.0,0.0,0.0, POINTS=12, QUANTITY='GAUGE HEAT FLUX', IOR=3, ID='Incident Heat Flux' / 72

Smokeview Output

&SLCF PBY=0.0, QUANTITY='TEMPERATURE', VECTOR=.TRUE. /
&SLCF PBY=0.0, QUANTITY='HRRPUV' /
&SLCF PBY=0.0, QUANTITY='VELOCITY', VECTOR=.TRUE. /

&BNDF QUANTITY='GAUGE HEAT FLUX' /
&BNDF QUANTITY='WALL TEMPERATURE' /

&DUMP DT_RESTART= 100 /

&TAIL /


