&HEAD CHID='NIST_NRC_08_v5',TITLE='NIST/NRC Test 8' /

&MESH IJK=100,36,32, XB=0.0,21.7,0.0,7.04,0.0,3.82 /
&TRNX IDERIV=0,CC=10.8,PC=10.8 /
&TRNX IDERIV=1,CC=10.8,PC=0.5  /
&TRNY IDERIV=0,CC= 3.58,PC=3.58 /
&TRNY IDERIV=1,CC= 3.58,PC=0.5  /

&TIME TWFIN=900. /

&MISC TMPA=25.,SURF_DEFAULT='MARINITE', POROUS_FLOOR=.FALSE. /
&DUMP NFRAMES=900,DT_DEVC=10.,DT_HRR=10. /
&ZONE LEAK_AREA(0)=0.0645 /

&REAC ID         = 'HEPTANE'
      FYI        = 'Heptane, C_7 H_16'
      C          = 7.
      H          = 16.
      CO_YIELD   = 0.006
      SOOT_YIELD = 0.015 /

&OBST XB= 9.8,11.8, 3.1, 4.1, 0.0, 0.0, SURF_ID='STEEL SHEET' /  Fire Pan
&OBST XB= 9.8,11.8, 3.1, 3.1, 0.0, 0.1, SURF_ID='STEEL SHEET' /
&OBST XB= 9.8,11.8, 4.1, 4.1, 0.0, 0.1, SURF_ID='STEEL SHEET' /
&OBST XB= 9.8, 9.8, 3.1, 4.1, 0.0, 0.1, SURF_ID='STEEL SHEET' /
&OBST XB=11.8,11.8, 3.1, 4.1, 0.0, 0.1, SURF_ID='STEEL SHEET' /

&PART ID='heptane droplets',FUEL=.TRUE.,VAPORIZATION_TEMPERATURE=98.,
      HEAT_OF_VAPORIZATION=316.,SPECIFIC_HEAT=2.25,DENSITY=688.,
      QUANTITIES(1:2)='DROPLET_DIAMETER','DROPLET_TEMPERATURE',
      DROPLETS_PER_SECOND=2000,DIAMETER=250.,HEAT_OF_COMBUSTION=45000.,
      DT_INSERT=0.02,SAMPLING_FACTOR=1 /

&PROP ID='nozzle', PART_ID='heptane droplets', FLOW_RATE=2.307, FLOW_RAMP='FIRE_RAMP',
      DROPLET_VELOCITY=25., SPRAY_ANGLE=0.,45.    /
&RAMP ID='FIRE_RAMP',T=   0.,F=0.0 /
&RAMP ID='FIRE_RAMP',T= 176.,F=1.0 /
&RAMP ID='FIRE_RAMP',T= 610.,F=1.0 /
&RAMP ID='FIRE_RAMP',T= 611.,F=0.0 /

&OBST XB= 5.85,15.85,1.90,2.10,3.20,3.30,SURF_IDS='XLP TRAY CONTROL','STEEL SHEET','XLP TRAY CONTROL' /  Cable Tray D
&OBST XB=10.70,11.00,1.10,1.30,2.70,2.90,SURF_ID='PVC SINGLE CONTROL' /  Slab Target E
&OBST XB=10.40,10.70,1.10,1.30,2.70,2.90,SURF_ID='XLP SINGLE CONTROL' /  Control Cable B
&OBST XB= 5.80,15.80,0.40,0.60,2.20,2.30,SURF_ID='XLP SINGLE POWER' / Power Cable F
&OBST XB=10.58,10.88,6.80,7.04,0.00,3.82,SURF_ID='XLP TRAY CONTROL' / Vertical Ladder Tray G
&OBST XB=17.55,17.85,3.37,3.67,3.72,3.82,SURF_ID='FERALOY' / Junction Box

&VENT MB='ZMIN',SURF_ID='GYPSUM BOARD' /

cVENT XB= 0.00, 0.00,2.51,4.51,0.00,2.00,SURF_ID='OPEN'   /

&SLCF PBY=3.5,QUANTITY='TEMPERATURE',VECTOR=.TRUE. /
&SLCF PBY=3.5,QUANTITY='HRRPUV' /
&SLCF PBY=3.5,QUANTITY='MIXTURE_FRACTION' /
&SLCF PBX=10.8,QUANTITY='TEMPERATURE',VECTOR=.TRUE. /
&SLCF PBX=10.8,QUANTITY='HRRPUV' /
&SLCF PBX=10.8,QUANTITY='MIXTURE_FRACTION' /

&BNDF QUANTITY='WALL_TEMPERATURE' /
&BNDF QUANTITY='GAUGE_HEAT_FLUX' /

&MATL ID                 = 'PVC'
      FYI                = 'NISTIR 1013-1'
      CONDUCTIVITY_RAMP  = 'k_pvc'
      SPECIFIC_HEAT_RAMP = 'c_pvc'
      DENSITY            = 1380.
      EMISSIVITY         = 0.95 /
&RAMP ID='k_pvc',T= 23.,F=0.192 /                                                                             
&RAMP ID='k_pvc',T= 50.,F=0.175 /                                                                             
&RAMP ID='k_pvc',T= 75.,F=0.172 /                                                                             
&RAMP ID='k_pvc',T=100.,F=0.147 /                                                                             
&RAMP ID='k_pvc',T=125.,F=0.141 /                                                                             
&RAMP ID='k_pvc',T=150.,F=0.134 /                                                                             
&RAMP ID='c_pvc',T= 23.,F=1.289 /                                                                            
&RAMP ID='c_pvc',T= 50.,F=1.353 /                                                                            
&RAMP ID='c_pvc',T= 75.,F=1.407 /                                                                            
&RAMP ID='c_pvc',T=100.,F=1.469 /                                                                            
&RAMP ID='c_pvc',T=125.,F=1.530 /                                                                            
&RAMP ID='c_pvc',T=150.,F=1.586 /               

&MATL ID                 = 'XLP'  
      FYI                = 'NISTIR 1013-1'
      CONDUCTIVITY_RAMP  = 'k_xlp'
      SPECIFIC_HEAT_RAMP = 'c_xlp'
      DENSITY            = 1374.
      EMISSIVITY         = 0.95 /
&RAMP ID='k_xlp',T= 23.,F=0.235 /                                                                             
&RAMP ID='k_xlp',T= 50.,F=0.232 /                                                                             
&RAMP ID='k_xlp',T= 75.,F=0.223 /                                                                             
&RAMP ID='k_xlp',T=100.,F=0.210 /                                                                             
&RAMP ID='k_xlp',T=125.,F=0.190 /                                                                             
&RAMP ID='k_xlp',T=150.,F=0.192 /                                                                             
&RAMP ID='c_xlp',T= 23.,F=1.390 /                                                                            
&RAMP ID='c_xlp',T= 50.,F=1.476 /                                                                            
&RAMP ID='c_xlp',T= 75.,F=1.526 /                                                                            
&RAMP ID='c_xlp',T=100.,F=1.560 /                                                                            
&RAMP ID='c_xlp',T=125.,F=1.585 /                                                                            
&RAMP ID='c_xlp',T=150.,F=1.607 / 

&MATL ID                 = 'MARINITE'
      FYI                = 'BNZ Materials Marinite I'
      EMISSIVITY         = 0.8
      DENSITY            = 737.
      SPECIFIC_HEAT_RAMP = 'c_mar'
      CONDUCTIVITY_RAMP  = 'k_mar' /
&RAMP ID='k_mar',T= 24.,F=0.13 /
&RAMP ID='k_mar',T=149.,F=0.12 /
&RAMP ID='k_mar',T=538.,F=0.12 /
&RAMP ID='c_mar',T= 93.,F=1.172 /
&RAMP ID='c_mar',T=205.,F=1.255 /
&RAMP ID='c_mar',T=316.,F=1.339 /   
&RAMP ID='c_mar',T=425.,F=1.423 /   

&MATL ID            = 'STEEL'
      FYI           = 'Quintiere, Fire Behavior'
      SPECIFIC_HEAT = 0.46
      CONDUCTIVITY  = 45.8
      DENSITY       = 7850. /

&MATL ID            = 'FERALOY'
      FYI           = 'NISTIR 1013-1'
      SPECIFIC_HEAT = 0.456
      CONDUCTIVITY  = 78.2
      DENSITY       = 787. /

&MATL ID            = 'GYPSUM PLASTER'
      FYI           = 'Quintiere, Fire Behavior'
      CONDUCTIVITY  = 0.48
      SPECIFIC_HEAT = 0.84
      DENSITY       = 1440. /   

&MATL ID            = 'YELLOW PINE'
      FYI           = 'Quintiere, Fire Behavior'
      CONDUCTIVITY  = 0.14
      SPECIFIC_HEAT = 2.85
      DENSITY       = 640.  /   

&SURF ID='PVC TRAY CONTROL',  MATL_ID='PVC', COLOR='RED', THICKNESS=0.01 /
&SURF ID='PVC SINGLE CONTROL',MATL_ID='PVC', COLOR='RED', THICKNESS=0.005, GEOMETRY='CYLINDRICAL' /
&SURF ID='PVC SINGLE POWER',  MATL_ID='PVC', COLOR='RED', THICKNESS=0.008, GEOMETRY='CYLINDRICAL' /

&SURF ID='XLP TRAY CONTROL',  MATL_ID='XLP', COLOR='GREEN', THICKNESS=0.01 /
&SURF ID='XLP SINGLE CONTROL',MATL_ID='XLP', COLOR='GREEN', THICKNESS=0.005,  GEOMETRY='CYLINDRICAL' /
&SURF ID='XLP SINGLE POWER',  MATL_ID='XLP', COLOR='GREEN', THICKNESS=0.0095, GEOMETRY='CYLINDRICAL' /

&SURF ID        = 'STEEL SHEET'
      MATL_ID   = 'STEEL'
      COLOR     = 'BLACK'
      BACKING   = 'EXPOSED'
      THICKNESS = 0.00635 /

&SURF ID        = 'FERALOY'
      MATL_ID   = 'FERALOY'
      COLOR     = 'SILVER'
      BACKING   = 'EXPOSED'
      THICKNESS = 0.007 /

&SURF ID        = 'MARINITE'
      MATL_ID   = 'MARINITE'
      COLOR     = 'BEIGE'
      BACKING   = 'EXPOSED'
      LEAK_PATH = 1,0
      THICKNESS = 0.0254 /

&SURF ID             = 'GYPSUM BOARD'
      FYI            = 'Compartment floor'
      MATL_ID(1:2,1) = 'GYPSUM PLASTER','YELLOW PINE'
      COLOR          = 'ANTIQUE WHITE'
      THICKNESS(1:2) = 0.0127,0.0127 /

TC Trees

&DEVC XYZ= 5.00, 3.58, 0.35,QUANTITY='THERMOCOUPLE',ID='Tr 1-1' /
&DEVC XYZ= 5.00, 3.58, 0.70,QUANTITY='THERMOCOUPLE',ID='Tr 1-2' /
&DEVC XYZ= 5.00, 3.58, 1.05,QUANTITY='THERMOCOUPLE',ID='Tr 1-3' /
&DEVC XYZ= 5.00, 3.58, 1.40,QUANTITY='THERMOCOUPLE',ID='Tr 1-4' /
&DEVC XYZ= 5.00, 3.58, 1.75,QUANTITY='THERMOCOUPLE',ID='Tr 1-5' /
&DEVC XYZ= 5.00, 3.58, 2.10,QUANTITY='THERMOCOUPLE',ID='Tr 1-6' /
&DEVC XYZ= 5.00, 3.58, 2.45,QUANTITY='THERMOCOUPLE',ID='Tr 1-7' /
&DEVC XYZ= 5.00, 3.58, 2.80,QUANTITY='THERMOCOUPLE',ID='Tr 1-8' /
&DEVC XYZ= 5.00, 3.58, 3.15,QUANTITY='THERMOCOUPLE',ID='Tr 1-9' /
&DEVC XYZ= 5.00, 3.58, 3.50,QUANTITY='THERMOCOUPLE',ID='Tr 1-10'/

&DEVC XYZ=10.85, 6.48, 0.35,QUANTITY='THERMOCOUPLE',ID='Tr 2-1' /
&DEVC XYZ=10.85, 6.48, 0.70,QUANTITY='THERMOCOUPLE',ID='Tr 2-2' /
&DEVC XYZ=10.85, 6.48, 1.05,QUANTITY='THERMOCOUPLE',ID='Tr 2-3' /
&DEVC XYZ=10.85, 6.48, 1.40,QUANTITY='THERMOCOUPLE',ID='Tr 2-4' /
&DEVC XYZ=10.85, 6.48, 1.75,QUANTITY='THERMOCOUPLE',ID='Tr 2-5' /
&DEVC XYZ=10.85, 6.48, 2.10,QUANTITY='THERMOCOUPLE',ID='Tr 2-6' /
&DEVC XYZ=10.85, 6.48, 2.45,QUANTITY='THERMOCOUPLE',ID='Tr 2-7' /
&DEVC XYZ=10.85, 6.48, 2.80,QUANTITY='THERMOCOUPLE',ID='Tr 2-8' /
&DEVC XYZ=10.85, 6.48, 3.15,QUANTITY='THERMOCOUPLE',ID='Tr 2-9' /
&DEVC XYZ=10.85, 6.48, 3.50,QUANTITY='THERMOCOUPLE',ID='Tr 2-10'/

&DEVC XYZ=10.85, 2.20, 0.35,QUANTITY='THERMOCOUPLE',ID='Tr 3-1' /
&DEVC XYZ=10.85, 2.20, 0.70,QUANTITY='THERMOCOUPLE',ID='Tr 3-2' /
&DEVC XYZ=10.85, 2.20, 1.05,QUANTITY='THERMOCOUPLE',ID='Tr 3-3' /
&DEVC XYZ=10.85, 2.20, 1.40,QUANTITY='THERMOCOUPLE',ID='Tr 3-4' /
&DEVC XYZ=10.85, 2.20, 1.75,QUANTITY='THERMOCOUPLE',ID='Tr 3-5' /
&DEVC XYZ=10.85, 2.20, 2.10,QUANTITY='THERMOCOUPLE',ID='Tr 3-6' /
&DEVC XYZ=10.85, 2.20, 2.45,QUANTITY='THERMOCOUPLE',ID='Tr 3-7' /
&DEVC XYZ=10.85, 2.20, 2.80,QUANTITY='THERMOCOUPLE',ID='Tr 3-8' /
&DEVC XYZ=10.85, 2.20, 3.15,QUANTITY='THERMOCOUPLE',ID='Tr 3-9' /
&DEVC XYZ=10.85, 2.20, 3.50,QUANTITY='THERMOCOUPLE',ID='Tr 3-10'/

&DEVC XYZ=10.85, 1.35, 0.35,QUANTITY='THERMOCOUPLE',ID='Tr 4-1' /
&DEVC XYZ=10.85, 1.35, 0.70,QUANTITY='THERMOCOUPLE',ID='Tr 4-2' /
&DEVC XYZ=10.85, 1.35, 1.05,QUANTITY='THERMOCOUPLE',ID='Tr 4-3' /
&DEVC XYZ=10.85, 1.35, 1.40,QUANTITY='THERMOCOUPLE',ID='Tr 4-4' /
&DEVC XYZ=10.85, 1.35, 1.75,QUANTITY='THERMOCOUPLE',ID='Tr 4-5' /
&DEVC XYZ=10.85, 1.35, 2.10,QUANTITY='THERMOCOUPLE',ID='Tr 4-6' /
&DEVC XYZ=10.85, 1.35, 2.45,QUANTITY='THERMOCOUPLE',ID='Tr 4-7' /
&DEVC XYZ=10.85, 1.35, 2.80,QUANTITY='THERMOCOUPLE',ID='Tr 4-8' /
&DEVC XYZ=10.85, 1.35, 3.15,QUANTITY='THERMOCOUPLE',ID='Tr 4-9' /
&DEVC XYZ=10.85, 1.35, 3.50,QUANTITY='THERMOCOUPLE',ID='Tr 4-10'/

&DEVC XYZ=10.85, 0.55, 0.35,QUANTITY='THERMOCOUPLE',ID='Tr 5-1' /
&DEVC XYZ=10.85, 0.55, 0.70,QUANTITY='THERMOCOUPLE',ID='Tr 5-2' /
&DEVC XYZ=10.85, 0.55, 1.05,QUANTITY='THERMOCOUPLE',ID='Tr 5-3' /
&DEVC XYZ=10.85, 0.55, 1.40,QUANTITY='THERMOCOUPLE',ID='Tr 5-4' /
&DEVC XYZ=10.85, 0.55, 1.75,QUANTITY='THERMOCOUPLE',ID='Tr 5-5' /
&DEVC XYZ=10.85, 0.55, 2.10,QUANTITY='THERMOCOUPLE',ID='Tr 5-6' /
&DEVC XYZ=10.85, 0.55, 2.45,QUANTITY='THERMOCOUPLE',ID='Tr 5-7' /
&DEVC XYZ=10.85, 0.55, 2.80,QUANTITY='THERMOCOUPLE',ID='Tr 5-8' /
&DEVC XYZ=10.85, 0.55, 3.15,QUANTITY='THERMOCOUPLE',ID='Tr 5-9' /
&DEVC XYZ=10.85, 0.55, 3.50,QUANTITY='THERMOCOUPLE',ID='Tr 5-10'/

&DEVC XYZ=11.95, 3.58, 0.35,QUANTITY='THERMOCOUPLE',ID='Tr 6-1' /
&DEVC XYZ=11.95, 3.58, 0.70,QUANTITY='THERMOCOUPLE',ID='Tr 6-2' /
&DEVC XYZ=11.95, 3.58, 1.05,QUANTITY='THERMOCOUPLE',ID='Tr 6-3' /
&DEVC XYZ=11.95, 3.58, 1.40,QUANTITY='THERMOCOUPLE',ID='Tr 6-4' /
&DEVC XYZ=11.95, 3.58, 1.75,QUANTITY='THERMOCOUPLE',ID='Tr 6-5' /
&DEVC XYZ=11.95, 3.58, 2.10,QUANTITY='THERMOCOUPLE',ID='Tr 6-6' /
&DEVC XYZ=11.95, 3.58, 2.45,QUANTITY='THERMOCOUPLE',ID='Tr 6-7' /
&DEVC XYZ=11.95, 3.58, 2.80,QUANTITY='THERMOCOUPLE',ID='Tr 6-8' /
&DEVC XYZ=11.95, 3.58, 3.15,QUANTITY='THERMOCOUPLE',ID='Tr 6-9' /
&DEVC XYZ=11.95, 3.58, 3.50,QUANTITY='THERMOCOUPLE',ID='Tr 6-10'/

&DEVC XYZ=16.70, 3.58, 0.35,QUANTITY='THERMOCOUPLE',ID='Tr 7-1' /
&DEVC XYZ=16.70, 3.58, 0.70,QUANTITY='THERMOCOUPLE',ID='Tr 7-2' /
&DEVC XYZ=16.70, 3.58, 1.05,QUANTITY='THERMOCOUPLE',ID='Tr 7-3' /
&DEVC XYZ=16.70, 3.58, 1.40,QUANTITY='THERMOCOUPLE',ID='Tr 7-4' /
&DEVC XYZ=16.70, 3.58, 1.75,QUANTITY='THERMOCOUPLE',ID='Tr 7-5' /
&DEVC XYZ=16.70, 3.58, 2.10,QUANTITY='THERMOCOUPLE',ID='Tr 7-6' /
&DEVC XYZ=16.70, 3.58, 2.45,QUANTITY='THERMOCOUPLE',ID='Tr 7-7' /
&DEVC XYZ=16.70, 3.58, 2.80,QUANTITY='THERMOCOUPLE',ID='Tr 7-8' /
&DEVC XYZ=16.70, 3.58, 3.15,QUANTITY='THERMOCOUPLE',ID='Tr 7-9' /
&DEVC XYZ=16.70, 3.58, 3.50,QUANTITY='THERMOCOUPLE',ID='Tr 7-10'/

Wall TCs

&DEVC XYZ= 3.91, 7.04, 1.49,QUANTITY='WALL_TEMPERATURE',IOR=-2,ID='TC N U-1'/
&DEVC XYZ= 3.91, 7.04, 3.72,QUANTITY='WALL_TEMPERATURE',IOR=-2,ID='TC N U-2'/
&DEVC XYZ= 9.55, 7.04, 1.87,QUANTITY='WALL_TEMPERATURE',IOR=-2,ID='TC N U-3'/
&DEVC XYZ=12.15, 7.04, 1.87,QUANTITY='WALL_TEMPERATURE',IOR=-2,ID='TC N U-4'/
&DEVC XYZ=17.79, 7.04, 1.50,QUANTITY='WALL_TEMPERATURE',IOR=-2,ID='TC N U-5'/
&DEVC XYZ=17.79, 7.04, 3.73,QUANTITY='WALL_TEMPERATURE',IOR=-2,ID='TC N U-6'/

&DEVC XYZ= 3.91, 0.00, 1.49,QUANTITY='WALL_TEMPERATURE',IOR= 2,ID='TC S U-1'/
&DEVC XYZ= 3.91, 0.00, 3.72,QUANTITY='WALL_TEMPERATURE',IOR= 2,ID='TC S U-2'/
&DEVC XYZ= 9.55, 0.00, 1.87,QUANTITY='WALL_TEMPERATURE',IOR= 2,ID='TC S U-3'/
&DEVC XYZ=12.15, 0.00, 1.87,QUANTITY='WALL_TEMPERATURE',IOR= 2,ID='TC S U-4'/
&DEVC XYZ=17.79, 0.00, 1.50,QUANTITY='WALL_TEMPERATURE',IOR= 2,ID='TC S U-5'/
&DEVC XYZ=17.79, 0.00, 3.73,QUANTITY='WALL_TEMPERATURE',IOR= 2,ID='TC S U-6'/

&DEVC XYZ=21.70, 1.59, 1.12,QUANTITY='WALL_TEMPERATURE',IOR=-1,ID='TC E U-1'/
&DEVC XYZ=21.70, 1.59, 2.43,QUANTITY='WALL_TEMPERATURE',IOR=-1,ID='TC E U-2'/
&DEVC XYZ=21.70, 5.76, 1.12,QUANTITY='WALL_TEMPERATURE',IOR=-1,ID='TC E U-3'/
&DEVC XYZ=21.70, 5.76, 2.43,QUANTITY='WALL_TEMPERATURE',IOR=-1,ID='TC E U-4'/

&DEVC XYZ= 0.00, 1.59, 1.12,QUANTITY='WALL_TEMPERATURE',IOR= 1,ID='TC W U-1'/
&DEVC XYZ= 0.00, 1.59, 2.43,QUANTITY='WALL_TEMPERATURE',IOR= 1,ID='TC W U-2'/
&DEVC XYZ= 0.00, 5.76, 1.12,QUANTITY='WALL_TEMPERATURE',IOR= 1,ID='TC W U-3'/
&DEVC XYZ= 0.00, 5.76, 2.43,QUANTITY='WALL_TEMPERATURE',IOR= 1,ID='TC W U-4'/

&DEVC XYZ= 3.04, 3.59, 0.00,QUANTITY='WALL_TEMPERATURE',IOR= 3,ID='TC F U-1'/
&DEVC XYZ= 9.11, 2.00, 0.00,QUANTITY='WALL_TEMPERATURE',IOR= 3,ID='TC F U-2'/
&DEVC XYZ= 9.11, 5.97, 0.00,QUANTITY='WALL_TEMPERATURE',IOR= 3,ID='TC F U-3'/
&DEVC XYZ=10.85, 2.39, 0.00,QUANTITY='WALL_TEMPERATURE',IOR= 3,ID='TC F U-4'/
&DEVC XYZ=10.85, 5.17, 0.00,QUANTITY='WALL_TEMPERATURE',IOR= 3,ID='TC F C-5'/
&DEVC XYZ=13.02, 2.00, 0.00,QUANTITY='WALL_TEMPERATURE',IOR= 3,ID='TC F U-6'/
&DEVC XYZ=13.02, 5.97, 0.00,QUANTITY='WALL_TEMPERATURE',IOR= 3,ID='TC F U-7'/
&DEVC XYZ=18.66, 3.59, 0.00,QUANTITY='WALL_TEMPERATURE',IOR= 3,ID='TC F U-8'/

&DEVC XYZ= 3.04, 3.59, 3.82,QUANTITY='WALL_TEMPERATURE',IOR=-3,ID='TC C U-1'/
&DEVC XYZ= 9.11, 2.00, 3.82,QUANTITY='WALL_TEMPERATURE',IOR=-3,ID='TC C C-2'/
&DEVC XYZ= 9.11, 5.97, 3.82,QUANTITY='WALL_TEMPERATURE',IOR=-3,ID='TC C C-3'/
&DEVC XYZ=10.85, 2.39, 3.82,QUANTITY='WALL_TEMPERATURE',IOR=-3,ID='TC C C-4'/
&DEVC XYZ=10.85, 5.17, 3.82,QUANTITY='WALL_TEMPERATURE',IOR=-3,ID='TC C C-5'/
&DEVC XYZ=13.02, 2.00, 3.82,QUANTITY='WALL_TEMPERATURE',IOR=-3,ID='TC C C-6'/
&DEVC XYZ=13.02, 5.97, 3.82,QUANTITY='WALL_TEMPERATURE',IOR=-3,ID='TC C C-7'/
&DEVC XYZ=18.66, 3.59, 3.82,QUANTITY='WALL_TEMPERATURE',IOR=-3,ID='TC C U-8'/

Bidirectional Probe TCs

&DEVC XYZ= 0.10, 2.81, 0.20,QUANTITY='THERMOCOUPLE',ID='TC Door 1'/
&DEVC XYZ= 0.10, 2.81, 0.60,QUANTITY='THERMOCOUPLE',ID='TC Door 2'/
&DEVC XYZ= 0.10, 2.81, 1.00,QUANTITY='THERMOCOUPLE',ID='TC Door 3'/
&DEVC XYZ= 0.10, 2.81, 1.20,QUANTITY='THERMOCOUPLE',ID='TC Door 4'/
&DEVC XYZ= 0.10, 2.81, 1.40,QUANTITY='THERMOCOUPLE',ID='TC Door 5'/
&DEVC XYZ= 0.10, 2.81, 1.60,QUANTITY='THERMOCOUPLE',ID='TC Door 6'/
&DEVC XYZ= 0.10, 2.81, 1.80,QUANTITY='THERMOCOUPLE',ID='TC Door 7'/
&DEVC XYZ= 0.10, 2.81, 1.90,QUANTITY='THERMOCOUPLE',ID='TC Door 8'/
&DEVC XYZ= 0.10, 3.61, 0.20,QUANTITY='THERMOCOUPLE',ID='TC Door 9'/
&DEVC XYZ= 0.10, 3.61, 0.60,QUANTITY='THERMOCOUPLE',ID='TC Door 10'/
&DEVC XYZ= 0.10, 3.61, 1.00,QUANTITY='THERMOCOUPLE',ID='TC Door 11'/
&DEVC XYZ= 0.10, 3.61, 1.20,QUANTITY='THERMOCOUPLE',ID='TC Door 12'/
&DEVC XYZ= 0.10, 3.61, 1.40,QUANTITY='THERMOCOUPLE',ID='TC Door 13'/
&DEVC XYZ= 0.10, 3.61, 1.60,QUANTITY='THERMOCOUPLE',ID='TC Door 14'/
&DEVC XYZ= 0.10, 3.61, 1.80,QUANTITY='THERMOCOUPLE',ID='TC Door 15'/
&DEVC XYZ= 0.10, 3.61, 1.90,QUANTITY='THERMOCOUPLE',ID='TC Door 16'/
&DEVC XYZ= 0.10, 4.21, 0.20,QUANTITY='THERMOCOUPLE',ID='TC Door 17'/
&DEVC XYZ= 0.10, 4.21, 0.60,QUANTITY='THERMOCOUPLE',ID='TC Door 18'/
&DEVC XYZ= 0.10, 4.21, 1.00,QUANTITY='THERMOCOUPLE',ID='TC Door 19'/
&DEVC XYZ= 0.10, 4.21, 1.20,QUANTITY='THERMOCOUPLE',ID='TC Door 20'/
! ... 4 like lines cut
&DEVC XYZ=11.35, 0.00, 2.40,QUANTITY='THERMOCOUPLE',ID='TC Supply 25'/
&DEVC XYZ=11.35, 7.04, 2.40,QUANTITY='THERMOCOUPLE',ID='TC Exhaust 26'/
&DEVC XYZ= 0.00, 0.30, 0.08,QUANTITY='THERMOCOUPLE',ID='TC Leak 27'/

Cable TCs

&DEVC XYZ=10.55, 1.30, 2.80,QUANTITY='WALL_TEMPERATURE',IOR=-3,ID='B Ts-14'/
&DEVC XYZ=10.55, 1.30, 2.80,QUANTITY='INSIDE_WALL_TEMPERATURE',IOR=-3,ID='B Tc-15',DEPTH=0.0012 /
&DEVC XYZ=10.85, 2.00, 3.20,QUANTITY='WALL_TEMPERATURE',IOR=-3,ID='D Ts-12'/
&DEVC XYZ=10.85, 1.25, 2.70,QUANTITY='WALL_TEMPERATURE',IOR=-3,ID='E Ts-16'/
&DEVC XYZ=10.85, 1.25, 2.85,QUANTITY='WALL_TEMPERATURE',IOR= 3,ID='E Ts-16p'/
&DEVC XYZ=10.85, 1.25, 2.70,QUANTITY='INSIDE_WALL_TEMPERATURE',IOR=-3,ID='E Tc-17',DEPTH=0.0025 /
&DEVC XYZ=10.85, 0.50, 2.20,QUANTITY='WALL_TEMPERATURE',IOR=-3,ID='F Ts-20'/
&DEVC XYZ=14.85, 2.00, 3.20,QUANTITY='WALL_TEMPERATURE',IOR=-3,ID='D Ts-26'/
&DEVC XYZ=14.85, 0.50, 2.20,QUANTITY='WALL_TEMPERATURE',IOR=-3,ID='F Ts-30'/
&DEVC XYZ=10.80, 6.80, 0.35,QUANTITY='WALL_TEMPERATURE',IOR=-2,ID='G Ts-31'/
&DEVC XYZ=10.80, 6.80, 0.70,QUANTITY='WALL_TEMPERATURE',IOR=-2,ID='G Ts-32'/
&DEVC XYZ=10.80, 6.80, 1.75,QUANTITY='WALL_TEMPERATURE',IOR=-2,ID='G Ts-33'/
&DEVC XYZ=10.80, 6.80, 2.45,QUANTITY='WALL_TEMPERATURE',IOR=-2,ID='G Ts-35'/
&DEVC XYZ=10.80, 6.80, 3.15,QUANTITY='WALL_TEMPERATURE',IOR=-2,ID='G Ts-36'/
&DEVC XYZ=17.70, 3.58, 3.72,QUANTITY='BACK_WALL_TEMPERATURE',IOR=-3,ID='Junction Box TC-37'/
&DEVC XYZ=17.70, 3.58, 3.72,QUANTITY='WALL_TEMPERATURE',IOR=-3,ID='Junction Box Ts-38'/
&DEVC XYZ=17.55, 3.52, 3.77,QUANTITY='WALL_TEMPERATURE',IOR=-1,ID='Junction Box Ts-39'/

Aspirated TCs

&DEVC XYZ= 0.10, 3.61, 0.20,QUANTITY='TEMPERATURE',ID='ATC Door 1'/
&DEVC XYZ= 0.10, 3.61, 1.00,QUANTITY='TEMPERATURE',ID='ATC Door 2'/
&DEVC XYZ= 0.10, 3.61, 1.80,QUANTITY='TEMPERATURE',ID='ATC Door 3'/
&DEVC XYZ=11.35, 7.04, 2.40,QUANTITY='TEMPERATURE',ID='ATC Exhaust 4'/
&DEVC XYZ=10.85, 0.55, 1.05,QUANTITY='TEMPERATURE',ID='ATC 5'/
&DEVC XYZ=10.85, 0.55, 2.80,QUANTITY='TEMPERATURE',ID='ATC 6'/

Wall Flux Gauges

&DEVC XYZ= 3.91, 7.04, 1.49,QUANTITY='HEAT_FLUX',IOR=-2,ID='N U-1'/
&DEVC XYZ= 3.91, 7.04, 3.72,QUANTITY='HEAT_FLUX',IOR=-2,ID='N U-2'/
&DEVC XYZ= 9.55, 7.04, 1.87,QUANTITY='HEAT_FLUX',IOR=-2,ID='N U-3'/
&DEVC XYZ=12.15, 7.04, 1.87,QUANTITY='HEAT_FLUX',IOR=-2,ID='N U-4'/
&DEVC XYZ=17.79, 7.04, 1.50,QUANTITY='HEAT_FLUX',IOR=-2,ID='N U-5'/
&DEVC XYZ=17.79, 7.04, 3.73,QUANTITY='HEAT_FLUX',IOR=-2,ID='N U-6'/

&DEVC XYZ= 3.91, 0.00, 1.49,QUANTITY='HEAT_FLUX',IOR= 2,ID='S U-1'/
&DEVC XYZ= 3.91, 0.00, 3.72,QUANTITY='HEAT_FLUX',IOR= 2,ID='S U-2'/
&DEVC XYZ= 9.55, 0.00, 1.87,QUANTITY='HEAT_FLUX',IOR= 2,ID='S U-3'/
&DEVC XYZ=12.15, 0.00, 1.87,QUANTITY='HEAT_FLUX',IOR= 2,ID='S U-4'/
&DEVC XYZ=17.79, 0.00, 1.50,QUANTITY='HEAT_FLUX',IOR= 2,ID='S U-5'/
&DEVC XYZ=17.79, 0.00, 3.73,QUANTITY='HEAT_FLUX',IOR= 2,ID='S U-6'/

&DEVC XYZ=21.70, 1.59, 1.12,QUANTITY='HEAT_FLUX',IOR=-1,ID='E U-1'/
&DEVC XYZ=21.70, 1.59, 2.43,QUANTITY='HEAT_FLUX',IOR=-1,ID='E U-2'/
&DEVC XYZ=21.70, 5.76, 1.12,QUANTITY='HEAT_FLUX',IOR=-1,ID='E U-3'/
&DEVC XYZ=21.70, 5.76, 2.43,QUANTITY='HEAT_FLUX',IOR=-1,ID='E U-4'/

&DEVC XYZ= 0.00, 1.59, 1.12,QUANTITY='HEAT_FLUX',IOR= 1,ID='W U-1'/
&DEVC XYZ= 0.00, 1.59, 2.43,QUANTITY='HEAT_FLUX',IOR= 1,ID='W U-2'/
&DEVC XYZ= 0.00, 5.76, 1.12,QUANTITY='HEAT_FLUX',IOR= 1,ID='W U-3'/
&DEVC XYZ= 0.00, 5.76, 2.43,QUANTITY='HEAT_FLUX',IOR= 1,ID='W U-4'/

&DEVC XYZ= 3.04, 3.59, 0.00,QUANTITY='HEAT_FLUX',IOR= 3,ID='F U-1'/
&DEVC XYZ= 9.11, 2.00, 0.00,QUANTITY='HEAT_FLUX',IOR= 3,ID='F U-2'/
&DEVC XYZ= 9.11, 5.97, 0.00,QUANTITY='HEAT_FLUX',IOR= 3,ID='F U-3'/
&DEVC XYZ=10.85, 2.39, 0.00,QUANTITY='HEAT_FLUX',IOR= 3,ID='F U-4'/
&DEVC XYZ=10.85, 5.17, 0.00,QUANTITY='HEAT_FLUX',IOR= 3,ID='F C-5'/
&DEVC XYZ=13.02, 2.00, 0.00,QUANTITY='HEAT_FLUX',IOR= 3,ID='F U-6'/
&DEVC XYZ=13.02, 5.97, 0.00,QUANTITY='HEAT_FLUX',IOR= 3,ID='F U-7'/
&DEVC XYZ=18.66, 3.59, 0.00,QUANTITY='HEAT_FLUX',IOR= 3,ID='F U-8'/

&DEVC XYZ= 3.04, 3.59, 3.82,QUANTITY='HEAT_FLUX',IOR=-3,ID='C U-1'/
&DEVC XYZ= 9.11, 2.00, 3.82,QUANTITY='HEAT_FLUX',IOR=-3,ID='C C-2'/
&DEVC XYZ= 9.11, 5.97, 3.82,QUANTITY='HEAT_FLUX',IOR=-3,ID='C C-3'/
&DEVC XYZ=10.85, 2.39, 3.82,QUANTITY='HEAT_FLUX',IOR=-3,ID='C C-4'/
&DEVC XYZ=10.85, 5.17, 3.82,QUANTITY='HEAT_FLUX',IOR=-3,ID='C C-5'/
&DEVC XYZ=13.02, 2.00, 3.82,QUANTITY='HEAT_FLUX',IOR=-3,ID='C C-6'/
&DEVC XYZ=13.02, 5.97, 3.82,QUANTITY='HEAT_FLUX',IOR=-3,ID='C C-7'/
&DEVC XYZ=18.66, 3.59, 3.82,QUANTITY='HEAT_FLUX',IOR=-3,ID='C U-8'/

Rad and Total Flux Gauges

&DEVC XYZ=10.87, 0.50, 2.20,QUANTITY='GAUGE_HEAT_FLUX',IOR=-3,ID='Total Flux Gauge 2'/
&DEVC XYZ=10.87, 1.25, 2.70,QUANTITY='GAUGE_HEAT_FLUX',IOR=-3,ID='Total Flux Gauge 4'/
&DEVC XYZ=10.87, 1.30, 2.80,QUANTITY='GAUGE_HEAT_FLUX',IOR= 2,ID='Total Flux Gauge 6'/
&DEVC XYZ=10.87, 2.00, 3.20,QUANTITY='GAUGE_HEAT_FLUX',IOR=-3,ID='Total Flux Gauge 8'/
&DEVC XYZ=10.81, 6.80, 1.75,QUANTITY='GAUGE_HEAT_FLUX',IOR=-2,ID='Total Flux Gauge 9'/

&DEVC XYZ=10.87, 0.50, 2.20,QUANTITY='RADIOMETER',IOR=-3,ID='Rad Gauge 1'/     
&DEVC XYZ=10.87, 1.25, 2.70,QUANTITY='RADIOMETER',IOR=-3,ID='Rad Gauge 3'/     
&DEVC XYZ=10.87, 1.30, 2.80,QUANTITY='RADIOMETER',IOR= 2,ID='Rad Gauge 5'/     
&DEVC XYZ=10.87, 2.00, 3.20,QUANTITY='RADIOMETER',IOR=-3,ID='Rad Gauge 7'/     
&DEVC XYZ=10.81, 6.80, 1.75,QUANTITY='RADIOMETER',IOR=-2,ID='Rad Gauge 10'/     

Gaseous Sampling

&DEVC XYZ= 6.85, 3.48, 3.22,QUANTITY='oxygen',         ID='O2 1'/
&DEVC XYZ= 6.85, 3.48, 0.50,QUANTITY='oxygen',         ID='O2 2'/
&DEVC XYZ= 6.85, 3.48, 3.22,QUANTITY='carbon monoxide',ID='CO 3'/
&DEVC XYZ= 6.85, 3.48, 3.22,QUANTITY='carbon dioxide' ,ID='CO2 4'/

Bidirectional Probes

&DEVC XYZ= 0.10, 2.71, 0.20,QUANTITY='VELOCITY',   ID='BP Door 1'/
&DEVC XYZ= 0.10, 2.71, 0.60,QUANTITY='VELOCITY',   ID='BP Door 2'/
&DEVC XYZ= 0.10, 2.71, 1.00,QUANTITY='VELOCITY',   ID='BP Door 3'/
&DEVC XYZ= 0.10, 2.71, 1.40,QUANTITY='VELOCITY',   ID='BP Door 4'/
&DEVC XYZ= 0.10, 2.71, 1.80,QUANTITY='VELOCITY',   ID='BP Door 5'/
&DEVC XYZ= 0.10, 3.51, 0.20,QUANTITY='VELOCITY',   ID='BP Door 6'/
&DEVC XYZ= 0.10, 3.51, 0.60,QUANTITY='VELOCITY',   ID='BP Door 7'/
&DEVC XYZ= 0.10, 3.51, 1.00,QUANTITY='VELOCITY',   ID='BP Door 8'/
&DEVC XYZ= 0.10, 3.51, 1.40,QUANTITY='VELOCITY',   ID='BP Door 9'/
&DEVC XYZ= 0.10, 3.51, 1.80,QUANTITY='VELOCITY',   ID='BP Door 10'/
&DEVC XYZ= 0.10, 4.31, 0.20,QUANTITY='VELOCITY',   ID='BP Door 11'/
&DEVC XYZ= 0.10, 4.31, 0.60,QUANTITY='VELOCITY',   ID='BP Door 12'/
&DEVC XYZ= 0.10, 4.31, 1.00,QUANTITY='VELOCITY',   ID='BP Door 13'/
&DEVC XYZ= 0.10, 4.31, 1.40,QUANTITY='VELOCITY',   ID='BP Door 14'/
&DEVC XYZ= 0.10, 4.31, 1.80,QUANTITY='VELOCITY',   ID='BP Door 15'/
&DEVC XYZ=11.35, 0.00, 2.40,QUANTITY='VELOCITY',   ID='BP Supply 16'/
&DEVC XYZ=11.35, 7.04, 2.40,QUANTITY='VELOCITY',   ID='BP Exhaust 17'/
&DEVC XYZ= 0.00, 0.30, 0.08,QUANTITY='VELOCITY',   ID='BP Leak 18'/

Smoke Obscuration/Concentration

&DEVC XYZ=21.10, 0.50, 3.60,QUANTITY='soot density',   ID='Smoke Concentration'/

Compartment Pressure

&DEVC XYZ=10.85, 0.10, 0.10,QUANTITY='PRESSURE',   ID='Pressure'/

Integrated Quantities

&DEVC XB= 0.00, 0.00,2.51,4.51,0.00,2.00,QUANTITY='MASS FLOW',ID='Door Mass FLOW' /
&DEVC XB= 0.00, 0.00,2.51,4.51,0.00,2.00,QUANTITY='HEAT FLOW',ID='E-FLOW' /

&DEVC XB=16.70,16.70,3.58,3.58,0.00,3.82,QUANTITY='LAYER HEIGHT',ID='Layer Height' /
&DEVC XB=16.70,16.70,3.58,3.58,0.00,3.82,QUANTITY='UPPER TEMPERATURE',ID='HGL Temp' /


Spray Nozzles

&DEVC XYZ=10.8,3.6,0.6, PROP_ID='nozzle', QUANTITY='TIME', SETPOINT=0., ID='fuel_nozzle' /

&TAIL /
