&HEAD CHID='NIST_NRC_07',TITLE='NIST/NRC Test 7' /

&MESH IJK=43,24,40, XB=0.0,4.34,0.0,2.35,0.0,3.82, MULT_ID='mesh' /
&MULT ID='mesh', DX=4.34, DY=2.35, I_UPPER=4, J_UPPER=2 /

&TIME T_END=1800. /

&MISC TMPA=24., POROUS_FLOOR=.FALSE. /
&DUMP NFRAMES=100, DT_DEVC=10.,DT_HRR=10., SIG_FIGS=4, SIG_FIGS_EXP=3 /
&ZONE LEAK_AREA(0)=0.0712,LEAK_REFERENCE_PRESSURE(0)=50.,LEAK_PRESSURE_EXPONENT(0)=0.812/ /

&SPEC ID='N-HEPTANE' /
&SPEC ID='NITROGEN',LUMPED_COMPONENT_ONLY=.TRUE./
&SPEC ID='OXYGEN',LUMPED_COMPONENT_ONLY=.TRUE./
&SPEC ID='CARBON DIOXIDE',LUMPED_COMPONENT_ONLY=.TRUE./
&SPEC ID='CARBON MONOXIDE',LUMPED_COMPONENT_ONLY=.TRUE./
&SPEC ID='WATER VAPOR',LUMPED_COMPONENT_ONLY=.TRUE./
&SPEC ID='SOOT',AEROSOL=.TRUE.,MEAN_DIAMETER=1.E-6/

&SPEC ID='AIR',SPEC_ID='NITROGEN','OXYGEN','CARBON DIOXIDE','WATER VAPOR',BACKGROUND=.TRUE.,
      VOLUME_FRACTION=40.951853,10.861503,0.020221,0.497478/
&SPEC ID='PRODUCTS',SPEC_ID='NITROGEN','CARBON DIOXIDE','WATER VAPOR','CARBON MONOXIDE',
      VOLUME_FRACTION=40.951853,6.867414,8.497478,0.028619/

&REAC FUEL='N-HEPTANE',SPEC_ID_NU='N-HEPTANE','AIR','PRODUCTS','SOOT',
      NU=-1,-1,1,0.124188, RADIATIVE_FRACTION=0.44/

&OBST XB= 9.85,11.85, 3.02, 4.02, 0.0, 0.0, SURF_ID='STEEL SHEET FLOOR' /  Fire Pan
&OBST XB= 9.85,11.85, 3.02, 3.02, 0.0, 0.1, SURF_ID='STEEL SHEET' /
&OBST XB= 9.85,11.85, 4.02, 4.02, 0.0, 0.1, SURF_ID='STEEL SHEET' /
&OBST XB= 9.85, 9.85, 3.02, 4.02, 0.0, 0.1, SURF_ID='STEEL SHEET' /
&OBST XB=11.85,11.85, 3.02, 4.02, 0.0, 0.1, SURF_ID='STEEL SHEET' /

&PART ID='heptane droplets',SPEC_ID='N-HEPTANE',
      DIAMETER=100.,
      SAMPLING_FACTOR=1 /

&PROP ID='nozzle', PART_ID='heptane droplets', FLOW_RATE=0.7911, FLOW_RAMP='FIRE_RAMP',
      PARTICLE_VELOCITY=10., SPRAY_ANGLE=20.,30.    /
&RAMP ID='FIRE_RAMP',T=   0.,F=0.0 /
&RAMP ID='FIRE_RAMP',T= 129.,F=1.0 /
&RAMP ID='FIRE_RAMP',T=1332.,F=1.0 /
&RAMP ID='FIRE_RAMP',T=1515.,F=0.0 /

&PART ID='Gauge Down',    STATIC=.TRUE., ORIENTATION=0,0,-1, SURF_ID='Heat Flux Gauge' /
&PART ID='Gauge Forward', STATIC=.TRUE., ORIENTATION=0,1, 0, SURF_ID='Heat Flux Gauge' /
&PART ID='Gauge Back',    STATIC=.TRUE., ORIENTATION=0,-1,0, SURF_ID='Heat Flux Gauge' /

&PART ID='Cable A', STATIC=.TRUE., ORIENTATION=0,0,-1, SURF_ID='PVC CONTROL' /
&PART ID='Cable B', STATIC=.TRUE., ORIENTATION=0,0,-1, SURF_ID='PVC CONTROL' /
&PART ID='Cable C', STATIC=.TRUE., ORIENTATION=0,0,-1, SURF_ID='PVC CONTROL' /
&PART ID='Cable D', STATIC=.TRUE., ORIENTATION=0,0,-1, SURF_ID='PVC CONTROL TRAY' /
&PART ID='Cable F', STATIC=.TRUE., ORIENTATION=0,0,-1, SURF_ID='PVC POWER' /
&PART ID='Cable G', STATIC=.TRUE., ORIENTATION=0,-1,0, SURF_ID='PVC CONTROL TRAY' /

&INIT ID='Gauge 1-2', XYZ=10.81,0.44,2.05, N_PARTICLES=1, PART_ID='Gauge Down' /
&INIT ID='Gauge 3-4', XYZ=10.81,1.25,2.52, N_PARTICLES=1, PART_ID='Gauge Down' /
&INIT ID='Gauge 5-6', XYZ=10.81,1.40,2.54, N_PARTICLES=1, PART_ID='Gauge Forward' /
&INIT ID='Gauge 7-8', XYZ=10.81,2.00,3.04, N_PARTICLES=1, PART_ID='Gauge Down' /
&INIT ID='Gauge 9-10',XYZ=10.81,6.85,1.75, N_PARTICLES=1, PART_ID='Gauge Back' /

&INIT ID='Cable A-1', XYZ= 6.85,0.65,2.19, N_PARTICLES=1, PART_ID='Cable A' /
&INIT ID='Cable A-2', XYZ=10.83,0.65,2.19, N_PARTICLES=1, PART_ID='Cable A' /
&INIT ID='Cable A-3', XYZ=14.83,0.65,2.19, N_PARTICLES=1, PART_ID='Cable A' /
&INIT ID='Cable B-1', XYZ= 6.85,1.40,2.70, N_PARTICLES=1, PART_ID='Cable B' /
&INIT ID='Cable B-2', XYZ=10.83,1.40,2.70, N_PARTICLES=1, PART_ID='Cable B' /
&INIT ID='Cable B-3', XYZ=14.85,1.40,2.70, N_PARTICLES=1, PART_ID='Cable B' /
&INIT ID='Cable C-1', XYZ= 6.85,2.25,3.20, N_PARTICLES=1, PART_ID='Cable C' /
&INIT ID='Cable C-2', XYZ= 8.85,2.25,3.20, N_PARTICLES=1, PART_ID='Cable C' /
&INIT ID='Cable C-3', XYZ=10.83,2.25,3.20, N_PARTICLES=1, PART_ID='Cable C' /
&INIT ID='Cable C-4', XYZ=12.85,2.25,3.20, N_PARTICLES=1, PART_ID='Cable C' /
&INIT ID='Cable C-5', XYZ=14.85,2.25,3.20, N_PARTICLES=1, PART_ID='Cable C' /
&INIT ID='Cable D-1', XYZ= 6.85,2.03,3.22, N_PARTICLES=1, PART_ID='Cable D' /
&INIT ID='Cable D-2', XYZ=10.83,2.03,3.22, N_PARTICLES=1, PART_ID='Cable D' /
&INIT ID='Cable D-3', XYZ=14.85,2.03,3.22, N_PARTICLES=1, PART_ID='Cable D' /
&INIT ID='Cable F-1', XYZ= 6.85,0.50,2.18, N_PARTICLES=1, PART_ID='Cable F' /
&INIT ID='Cable F-2', XYZ=10.83,0.50,2.18, N_PARTICLES=1, PART_ID='Cable F' /
&INIT ID='Cable F-3', XYZ=14.85,0.50,2.18, N_PARTICLES=1, PART_ID='Cable F' /
&INIT ID='Cable G-1', XYZ=10.79,7.03,0.35, N_PARTICLES=1, PART_ID='Cable G' /
&INIT ID='Cable G-2', XYZ=10.79,7.03,0.70, N_PARTICLES=1, PART_ID='Cable G' /
&INIT ID='Cable G-3', XYZ=10.79,7.03,1.75, N_PARTICLES=1, PART_ID='Cable G' /
&INIT ID='Cable G-4', XYZ=10.79,7.03,2.45, N_PARTICLES=1, PART_ID='Cable G' /
&INIT ID='Cable G-5', XYZ=10.79,7.03,3.15, N_PARTICLES=1, PART_ID='Cable G' /

&VENT MB='ZMIN',SURF_ID='GYPSUM BOARD' /

&SLCF PBY=3.5,QUANTITY='TEMPERATURE',VECTOR=.TRUE. /

&BNDF QUANTITY='WALL TEMPERATURE' /

&MATL ID                 = 'PVC'
      FYI                = 'NISTIR 1013-1'
      CONDUCTIVITY_RAMP  = 'k_pvc'
      SPECIFIC_HEAT_RAMP = 'c_pvc'
      DENSITY            = 1380.
      EMISSIVITY         = 0.95 /
&RAMP ID='k_pvc',T= 23.,F=0.192 /
&RAMP ID='k_pvc',T= 50.,F=0.175 /
&RAMP ID='k_pvc',T= 75.,F=0.172 /
&RAMP ID='k_pvc',T=100.,F=0.147 /
&RAMP ID='k_pvc',T=125.,F=0.141 /
&RAMP ID='k_pvc',T=150.,F=0.134 /
&RAMP ID='c_pvc',T= 23.,F=1.289 /
&RAMP ID='c_pvc',T= 50.,F=1.353 /
&RAMP ID='c_pvc',T= 75.,F=1.407 /
&RAMP ID='c_pvc',T=100.,F=1.469 /
&RAMP ID='c_pvc',T=125.,F=1.530 /
&RAMP ID='c_pvc',T=150.,F=1.586 /

&MATL ID                 = 'XPE'
      FYI                = 'NISTIR 1013-1'
      CONDUCTIVITY_RAMP  = 'k_xpe'
      SPECIFIC_HEAT_RAMP = 'c_xpe'
      DENSITY            = 1374.
      EMISSIVITY         = 0.95 /
&RAMP ID='k_xpe',T= 23.,F=0.235 /
&RAMP ID='k_xpe',T= 50.,F=0.232 /
&RAMP ID='k_xpe',T= 75.,F=0.223 /
&RAMP ID='k_xpe',T=100.,F=0.210 /
&RAMP ID='k_xpe',T=125.,F=0.190 /
&RAMP ID='k_xpe',T=150.,F=0.192 /
&RAMP ID='c_xpe',T= 23.,F=1.390 /
&RAMP ID='c_xpe',T= 50.,F=1.476 /
&RAMP ID='c_xpe',T= 75.,F=1.526 /
&RAMP ID='c_xpe',T=100.,F=1.560 /
&RAMP ID='c_xpe',T=125.,F=1.585 /
&RAMP ID='c_xpe',T=150.,F=1.607 /

&MATL ID                 = 'MARINITE'
      FYI                = 'NIST SP 1013-1'
      EMISSIVITY         = 0.74
      DENSITY            = 670.
      SPECIFIC_HEAT_RAMP = 'c_mar'
      CONDUCTIVITY_RAMP  = 'k_mar' /
&RAMP ID='k_mar',T= 23.,F=0.111 /
&RAMP ID='k_mar',T= 50.,F=0.114 /
&RAMP ID='k_mar',T=100.,F=0.126 /
&RAMP ID='k_mar',T=200.,F=0.140 /
&RAMP ID='k_mar',T=300.,F=0.153 /
&RAMP ID='k_mar',T=400.,F=0.160 /
&RAMP ID='k_mar',T=500.,F=0.175 /
&RAMP ID='k_mar',T=600.,F=0.190 /
&RAMP ID='k_mar',T=650.,F=0.198 /

&RAMP ID='c_mar',T= 23.,F=0.778/
&RAMP ID='c_mar',T= 50.,F=0.795 /
&RAMP ID='c_mar',T=100.,F=0.871 /
&RAMP ID='c_mar',T=200.,F=0.965 /
&RAMP ID='c_mar',T=300.,F=1.047 /
&RAMP ID='c_mar',T=400.,F=1.082 /
&RAMP ID='c_mar',T=500.,F=1.160 /
&RAMP ID='c_mar',T=600.,F=1.205 /
&RAMP ID='c_mar',T=650.,F=1.223 /

&MATL ID            = 'STEEL'
      FYI           = 'Quintiere, Fire Behavior'
      SPECIFIC_HEAT = 0.46
      CONDUCTIVITY  = 45.8
      DENSITY       = 7850. /

&MATL ID            = 'FERALOY'
      FYI           = 'NISTIR 1013-1'
      SPECIFIC_HEAT = 0.456
      CONDUCTIVITY  = 78.2
      DENSITY       = 787. /

&MATL ID            = 'GYPSUM PLASTER'
      FYI           = 'Manzello, Park, Mizumkami, and Bentz'
      CONDUCTIVITY  = 0.26
      SPECIFIC_HEAT = 1.1
      DENSITY       = 947. /

&MATL ID            = 'YELLOW PINE'
      FYI           = 'Quintiere, Fire Behavior'
      CONDUCTIVITY  = 0.14
      SPECIFIC_HEAT = 2.85
      DENSITY       = 640.  /

&SURF ID='PVC CONTROL',      MATL_ID='PVC', LENGTH=0.2, THICKNESS=0.005,  GEOMETRY='CYLINDRICAL' /
&SURF ID='PVC CONTROL TRAY', MATL_ID='PVC', LENGTH=0.2, THICKNESS=0.01, WIDTH=0.2 /
&SURF ID='PVC POWER',        MATL_ID='PVC', LENGTH=0.2, THICKNESS=0.008,  GEOMETRY='CYLINDRICAL' /
&SURF ID='XPE CONTROL',      MATL_ID='XPE', LENGTH=0.2, THICKNESS=0.005,  GEOMETRY='CYLINDRICAL' /
&SURF ID='XPE CONTROL TRAY', MATL_ID='XPE', LENGTH=0.2, THICKNESS=0.01, WIDTH=0.2 /
&SURF ID='XPE POWER',        MATL_ID='XPE', LENGTH=0.2, THICKNESS=0.0095, GEOMETRY='CYLINDRICAL' /

&SURF ID='Heat Flux Gauge',  MATL_ID='STEEL', COLOR='GREEN', LENGTH=0.1, WIDTH=0.1, THICKNESS=0.01 /

&SURF ID        = 'STEEL SHEET'
      MATL_ID   = 'STEEL'
      COLOR     = 'BLACK'
      BACKING   = 'EXPOSED'
      THICKNESS = 0.00635 /

&SURF ID        = 'STEEL SHEET FLOOR'
      MATL_ID   = 'STEEL','GYPSUM PLASTER','YELLOW PINE'
      COLOR     = 'BLACK'
      BACKING   = 'EXPOSED'
      THICKNESS = 0.00635,0.0127,0.0183 /

&SURF ID        = 'FERALOY'
      MATL_ID   = 'FERALOY'
      COLOR     = 'SILVER'
      BACKING   = 'EXPOSED'
      THICKNESS = 0.007 /

&SURF ID        = 'MARINITE', DEFAULT=.TRUE.
      MATL_ID   = 'MARINITE'
      COLOR     = 'BEIGE'
      BACKING   = 'EXPOSED'
      THICKNESS = 0.0254,LEAK_PATH=0,1 /

&SURF ID             = 'GYPSUM BOARD'
      FYI            = 'Compartment floor'
      MATL_ID(1:2,1) = 'GYPSUM PLASTER','YELLOW PINE'
      COLOR          = 'ANTIQUE WHITE'
      THICKNESS(1:2) = 0.0127,0.0183/

TC Trees

&DEVC XYZ= 5.00, 3.58, 0.35,QUANTITY='THERMOCOUPLE',ID='Tr 1-1' /
&DEVC XYZ= 5.00, 3.58, 0.70,QUANTITY='THERMOCOUPLE',ID='Tr 1-2' /
&DEVC XYZ= 5.00, 3.58, 1.05,QUANTITY='THERMOCOUPLE',ID='Tr 1-3' /
&DEVC XYZ= 5.00, 3.58, 1.40,QUANTITY='THERMOCOUPLE',ID='Tr 1-4' /
&DEVC XYZ= 5.00, 3.58, 1.75,QUANTITY='THERMOCOUPLE',ID='Tr 1-5' /
&DEVC XYZ= 5.00, 3.58, 2.10,QUANTITY='THERMOCOUPLE',ID='Tr 1-6' /
&DEVC XYZ= 5.00, 3.58, 2.45,QUANTITY='THERMOCOUPLE',ID='Tr 1-7' /
&DEVC XYZ= 5.00, 3.58, 2.80,QUANTITY='THERMOCOUPLE',ID='Tr 1-8' /
&DEVC XYZ= 5.00, 3.58, 3.15,QUANTITY='THERMOCOUPLE',ID='Tr 1-9' /
&DEVC XYZ= 5.00, 3.58, 3.50,QUANTITY='THERMOCOUPLE',ID='Tr 1-10'/

&DEVC XYZ=10.85, 6.48, 0.35,QUANTITY='THERMOCOUPLE',ID='Tr 2-1' /
&DEVC XYZ=10.85, 6.48, 0.70,QUANTITY='THERMOCOUPLE',ID='Tr 2-2' /
&DEVC XYZ=10.85, 6.48, 1.05,QUANTITY='THERMOCOUPLE',ID='Tr 2-3' /
&DEVC XYZ=10.85, 6.48, 1.40,QUANTITY='THERMOCOUPLE',ID='Tr 2-4' /
&DEVC XYZ=10.85, 6.48, 1.75,QUANTITY='THERMOCOUPLE',ID='Tr 2-5' /
&DEVC XYZ=10.85, 6.48, 2.10,QUANTITY='THERMOCOUPLE',ID='Tr 2-6' /
&DEVC XYZ=10.85, 6.48, 2.45,QUANTITY='THERMOCOUPLE',ID='Tr 2-7' /
&DEVC XYZ=10.85, 6.48, 2.80,QUANTITY='THERMOCOUPLE',ID='Tr 2-8' /
&DEVC XYZ=10.85, 6.48, 3.15,QUANTITY='THERMOCOUPLE',ID='Tr 2-9' /
&DEVC XYZ=10.85, 6.48, 3.50,QUANTITY='THERMOCOUPLE',ID='Tr 2-10'/

&DEVC XYZ=10.85, 2.20, 0.35,QUANTITY='THERMOCOUPLE',ID='Tr 3-1' /
&DEVC XYZ=10.85, 2.20, 0.70,QUANTITY='THERMOCOUPLE',ID='Tr 3-2' /
&DEVC XYZ=10.85, 2.20, 1.05,QUANTITY='THERMOCOUPLE',ID='Tr 3-3' /
&DEVC XYZ=10.85, 2.20, 1.40,QUANTITY='THERMOCOUPLE',ID='Tr 3-4' /
&DEVC XYZ=10.85, 2.20, 1.75,QUANTITY='THERMOCOUPLE',ID='Tr 3-5' /
&DEVC XYZ=10.85, 2.20, 2.10,QUANTITY='THERMOCOUPLE',ID='Tr 3-6' /
&DEVC XYZ=10.85, 2.20, 2.45,QUANTITY='THERMOCOUPLE',ID='Tr 3-7' /
&DEVC XYZ=10.85, 2.20, 2.80,QUANTITY='THERMOCOUPLE',ID='Tr 3-8' /
&DEVC XYZ=10.85, 2.20, 3.15,QUANTITY='THERMOCOUPLE',ID='Tr 3-9' /
&DEVC XYZ=10.85, 2.20, 3.50,QUANTITY='THERMOCOUPLE',ID='Tr 3-10'/

&DEVC XYZ=10.85, 1.35, 0.35,QUANTITY='THERMOCOUPLE',ID='Tr 4-1' /
&DEVC XYZ=10.85, 1.35, 0.70,QUANTITY='THERMOCOUPLE',ID='Tr 4-2' /
&DEVC XYZ=10.85, 1.35, 1.05,QUANTITY='THERMOCOUPLE',ID='Tr 4-3' /
&DEVC XYZ=10.85, 1.35, 1.40,QUANTITY='THERMOCOUPLE',ID='Tr 4-4' /
&DEVC XYZ=10.85, 1.35, 1.75,QUANTITY='THERMOCOUPLE',ID='Tr 4-5' /
&DEVC XYZ=10.85, 1.35, 2.10,QUANTITY='THERMOCOUPLE',ID='Tr 4-6' /
&DEVC XYZ=10.85, 1.35, 2.45,QUANTITY='THERMOCOUPLE',ID='Tr 4-7' /
&DEVC XYZ=10.85, 1.35, 2.80,QUANTITY='THERMOCOUPLE',ID='Tr 4-8' /
&DEVC XYZ=10.85, 1.35, 3.15,QUANTITY='THERMOCOUPLE',ID='Tr 4-9' /
&DEVC XYZ=10.85, 1.35, 3.50,QUANTITY='THERMOCOUPLE',ID='Tr 4-10'/

&DEVC XYZ=10.85, 0.55, 0.35,QUANTITY='THERMOCOUPLE',ID='Tr 5-1' /
&DEVC XYZ=10.85, 0.55, 0.70,QUANTITY='THERMOCOUPLE',ID='Tr 5-2' /
&DEVC XYZ=10.85, 0.55, 1.05,QUANTITY='THERMOCOUPLE',ID='Tr 5-3' /
&DEVC XYZ=10.85, 0.55, 1.40,QUANTITY='THERMOCOUPLE',ID='Tr 5-4' /
&DEVC XYZ=10.85, 0.55, 1.75,QUANTITY='THERMOCOUPLE',ID='Tr 5-5' /
&DEVC XYZ=10.85, 0.55, 2.10,QUANTITY='THERMOCOUPLE',ID='Tr 5-6' /
&DEVC XYZ=10.85, 0.55, 2.45,QUANTITY='THERMOCOUPLE',ID='Tr 5-7' /
&DEVC XYZ=10.85, 0.55, 2.80,QUANTITY='THERMOCOUPLE',ID='Tr 5-8' /
&DEVC XYZ=10.85, 0.55, 3.15,QUANTITY='THERMOCOUPLE',ID='Tr 5-9' /
&DEVC XYZ=10.85, 0.55, 3.50,QUANTITY='THERMOCOUPLE',ID='Tr 5-10'/

&DEVC XYZ=11.95, 3.58, 0.35,QUANTITY='THERMOCOUPLE',ID='Tr 6-1' /
&DEVC XYZ=11.95, 3.58, 0.70,QUANTITY='THERMOCOUPLE',ID='Tr 6-2' /
&DEVC XYZ=11.95, 3.58, 1.05,QUANTITY='THERMOCOUPLE',ID='Tr 6-3' /
&DEVC XYZ=11.95, 3.58, 1.40,QUANTITY='THERMOCOUPLE',ID='Tr 6-4' /
&DEVC XYZ=11.95, 3.58, 1.75,QUANTITY='THERMOCOUPLE',ID='Tr 6-5' /
&DEVC XYZ=11.95, 3.58, 2.10,QUANTITY='THERMOCOUPLE',ID='Tr 6-6' /
&DEVC XYZ=11.95, 3.58, 2.45,QUANTITY='THERMOCOUPLE',ID='Tr 6-7' /
&DEVC XYZ=11.95, 3.58, 2.80,QUANTITY='THERMOCOUPLE',ID='Tr 6-8' /
&DEVC XYZ=11.95, 3.58, 3.15,QUANTITY='THERMOCOUPLE',ID='Tr 6-9' /
&DEVC XYZ=11.95, 3.58, 3.50,QUANTITY='THERMOCOUPLE',ID='Tr 6-10'/

&DEVC XYZ=16.70, 3.58, 0.35,QUANTITY='THERMOCOUPLE',ID='Tr 7-1' /
&DEVC XYZ=16.70, 3.58, 0.70,QUANTITY='THERMOCOUPLE',ID='Tr 7-2' /
&DEVC XYZ=16.70, 3.58, 1.05,QUANTITY='THERMOCOUPLE',ID='Tr 7-3' /
&DEVC XYZ=16.70, 3.58, 1.40,QUANTITY='THERMOCOUPLE',ID='Tr 7-4' /
&DEVC XYZ=16.70, 3.58, 1.75,QUANTITY='THERMOCOUPLE',ID='Tr 7-5' /
&DEVC XYZ=16.70, 3.58, 2.10,QUANTITY='THERMOCOUPLE',ID='Tr 7-6' /
&DEVC XYZ=16.70, 3.58, 2.45,QUANTITY='THERMOCOUPLE',ID='Tr 7-7' /
&DEVC XYZ=16.70, 3.58, 2.80,QUANTITY='THERMOCOUPLE',ID='Tr 7-8' /
&DEVC XYZ=16.70, 3.58, 3.15,QUANTITY='THERMOCOUPLE',ID='Tr 7-9' /
&DEVC XYZ=16.70, 3.58, 3.50,QUANTITY='THERMOCOUPLE',ID='Tr 7-10'/

Wall TCs

&DEVC XYZ= 3.91, 7.04, 1.49,QUANTITY='WALL TEMPERATURE',IOR=-2,ID='TC N U-1'/
&DEVC XYZ= 3.91, 7.04, 3.72,QUANTITY='WALL TEMPERATURE',IOR=-2,ID='TC N U-2'/
&DEVC XYZ= 9.55, 7.04, 1.87,QUANTITY='WALL TEMPERATURE',IOR=-2,ID='TC N U-3'/
&DEVC XYZ=12.15, 7.04, 1.87,QUANTITY='WALL TEMPERATURE',IOR=-2,ID='TC N U-4'/
&DEVC XYZ=17.79, 7.04, 1.50,QUANTITY='WALL TEMPERATURE',IOR=-2,ID='TC N U-5'/
&DEVC XYZ=17.79, 7.04, 3.73,QUANTITY='WALL TEMPERATURE',IOR=-2,ID='TC N U-6'/

&DEVC XYZ= 3.91, 0.00, 1.49,QUANTITY='WALL TEMPERATURE',IOR= 2,ID='TC S U-1'/
&DEVC XYZ= 3.91, 0.00, 3.72,QUANTITY='WALL TEMPERATURE',IOR= 2,ID='TC S U-2'/
&DEVC XYZ= 9.55, 0.00, 1.87,QUANTITY='WALL TEMPERATURE',IOR= 2,ID='TC S U-3'/
&DEVC XYZ=12.15, 0.00, 1.87,QUANTITY='WALL TEMPERATURE',IOR= 2,ID='TC S U-4'/
&DEVC XYZ=17.79, 0.00, 1.50,QUANTITY='WALL TEMPERATURE',IOR= 2,ID='TC S U-5'/
&DEVC XYZ=17.79, 0.00, 3.73,QUANTITY='WALL TEMPERATURE',IOR= 2,ID='TC S U-6'/

&DEVC XYZ=21.70, 1.59, 1.12,QUANTITY='WALL TEMPERATURE',IOR=-1,ID='TC E U-1'/
&DEVC XYZ=21.70, 1.59, 2.43,QUANTITY='WALL TEMPERATURE',IOR=-1,ID='TC E U-2'/
&DEVC XYZ=21.70, 5.76, 1.12,QUANTITY='WALL TEMPERATURE',IOR=-1,ID='TC E U-3'/
&DEVC XYZ=21.70, 5.76, 2.43,QUANTITY='WALL TEMPERATURE',IOR=-1,ID='TC E U-4'/

&DEVC XYZ= 0.00, 1.59, 1.12,QUANTITY='WALL TEMPERATURE',IOR= 1,ID='TC W U-1'/
&DEVC XYZ= 0.00, 1.59, 2.43,QUANTITY='WALL TEMPERATURE',IOR= 1,ID='TC W U-2'/
&DEVC XYZ= 0.00, 5.76, 1.12,QUANTITY='WALL TEMPERATURE',IOR= 1,ID='TC W U-3'/
&DEVC XYZ= 0.00, 5.76, 2.43,QUANTITY='WALL TEMPERATURE',IOR= 1,ID='TC W U-4'/

&DEVC XYZ= 3.04, 3.59, 0.00,QUANTITY='WALL TEMPERATURE',IOR= 3,ID='TC F U-1'/
&DEVC XYZ= 9.11, 2.00, 0.00,QUANTITY='WALL TEMPERATURE',IOR= 3,ID='TC F U-2'/
&DEVC XYZ= 9.11, 5.97, 0.00,QUANTITY='WALL TEMPERATURE',IOR= 3,ID='TC F U-3'/
&DEVC XYZ=10.85, 2.39, 0.00,QUANTITY='WALL TEMPERATURE',IOR= 3,ID='TC F U-4'/
&DEVC XYZ=10.85, 5.17, 0.00,QUANTITY='WALL TEMPERATURE',IOR= 3,ID='TC F C-5'/
&DEVC XYZ=13.02, 2.00, 0.00,QUANTITY='WALL TEMPERATURE',IOR= 3,ID='TC F U-6'/
&DEVC XYZ=13.02, 5.97, 0.00,QUANTITY='WALL TEMPERATURE',IOR= 3,ID='TC F U-7'/
&DEVC XYZ=18.66, 3.59, 0.00,QUANTITY='WALL TEMPERATURE',IOR= 3,ID='TC F U-8'/

&DEVC XYZ= 3.04, 3.59, 3.82,QUANTITY='WALL TEMPERATURE',IOR=-3,ID='TC C U-1'/
&DEVC XYZ= 9.11, 2.00, 3.82,QUANTITY='WALL TEMPERATURE',IOR=-3,ID='TC C C-2'/
&DEVC XYZ= 9.11, 5.97, 3.82,QUANTITY='WALL TEMPERATURE',IOR=-3,ID='TC C C-3'/
&DEVC XYZ=10.85, 2.39, 3.82,QUANTITY='WALL TEMPERATURE',IOR=-3,ID='TC C C-4'/
&DEVC XYZ=10.85, 5.17, 3.82,QUANTITY='WALL TEMPERATURE',IOR=-3,ID='TC C C-5'/
&DEVC XYZ=13.02, 2.00, 3.82,QUANTITY='WALL TEMPERATURE',IOR=-3,ID='TC C C-6'/
&DEVC XYZ=13.02, 5.97, 3.82,QUANTITY='WALL TEMPERATURE',IOR=-3,ID='TC C C-7'/
&DEVC XYZ=18.66, 3.59, 3.82,QUANTITY='WALL TEMPERATURE',IOR=-3,ID='TC C U-8'/

Bidirectional Probe TCs

&DEVC XYZ= 0.10, 2.81, 0.20,QUANTITY='THERMOCOUPLE',ID='TC Door 1'/
&DEVC XYZ= 0.10, 2.81, 0.60,QUANTITY='THERMOCOUPLE',ID='TC Door 2'/
&DEVC XYZ= 0.10, 2.81, 1.00,QUANTITY='THERMOCOUPLE',ID='TC Door 3'/
&DEVC XYZ= 0.10, 2.81, 1.20,QUANTITY='THERMOCOUPLE',ID='TC Door 4'/
&DEVC XYZ= 0.10, 2.81, 1.40,QUANTITY='THERMOCOUPLE',ID='TC Door 5'/
&DEVC XYZ= 0.10, 2.81, 1.60,QUANTITY='THERMOCOUPLE',ID='TC Door 6'/
&DEVC XYZ= 0.10, 2.81, 1.80,QUANTITY='THERMOCOUPLE',ID='TC Door 7'/
&DEVC XYZ= 0.10, 2.81, 1.90,QUANTITY='THERMOCOUPLE',ID='TC Door 8'/
&DEVC XYZ= 0.10, 3.61, 0.20,QUANTITY='THERMOCOUPLE',ID='TC Door 9'/
&DEVC XYZ= 0.10, 3.61, 0.60,QUANTITY='THERMOCOUPLE',ID='TC Door 10'/
&DEVC XYZ= 0.10, 3.61, 1.00,QUANTITY='THERMOCOUPLE',ID='TC Door 11'/
&DEVC XYZ= 0.10, 3.61, 1.20,QUANTITY='THERMOCOUPLE',ID='TC Door 12'/
&DEVC XYZ= 0.10, 3.61, 1.40,QUANTITY='THERMOCOUPLE',ID='TC Door 13'/
&DEVC XYZ= 0.10, 3.61, 1.60,QUANTITY='THERMOCOUPLE',ID='TC Door 14'/
&DEVC XYZ= 0.10, 3.61, 1.80,QUANTITY='THERMOCOUPLE',ID='TC Door 15'/
&DEVC XYZ= 0.10, 3.61, 1.90,QUANTITY='THERMOCOUPLE',ID='TC Door 16'/
&DEVC XYZ= 0.10, 4.21, 0.20,QUANTITY='THERMOCOUPLE',ID='TC Door 17'/
&DEVC XYZ= 0.10, 4.21, 0.60,QUANTITY='THERMOCOUPLE',ID='TC Door 18'/
&DEVC XYZ= 0.10, 4.21, 1.00,QUANTITY='THERMOCOUPLE',ID='TC Door 19'/
&DEVC XYZ= 0.10, 4.21, 1.20,QUANTITY='THERMOCOUPLE',ID='TC Door 20'/
! ... 4 like lines cut
&DEVC XYZ=11.35, 0.00, 2.40,QUANTITY='THERMOCOUPLE',ID='TC Supply 25'/
&DEVC XYZ=11.35, 7.04, 2.40,QUANTITY='THERMOCOUPLE',ID='TC Exhaust 26'/
&DEVC XYZ= 0.00, 0.30, 0.08,QUANTITY='THERMOCOUPLE',ID='TC Leak 27'/

Cable TCs

&DEVC QUANTITY='WALL TEMPERATURE',        INIT_ID='Cable C-1', ID='C Ts-1' /
&DEVC QUANTITY='INSIDE WALL TEMPERATURE', INIT_ID='Cable C-1', ID='C Tc-2',  DEPTH=0.0012 /
&DEVC QUANTITY='WALL TEMPERATURE',        INIT_ID='Cable D-1', ID='D Ts-3' /
&DEVC QUANTITY='WALL TEMPERATURE',        INIT_ID='Cable B-1', ID='B Ts-4' /
&DEVC QUANTITY='WALL TEMPERATURE',        INIT_ID='Cable A-1', ID='A Ts-6' /
&DEVC QUANTITY='WALL TEMPERATURE',        INIT_ID='Cable F-1', ID='F Ts-7' /
&DEVC QUANTITY='WALL TEMPERATURE',        INIT_ID='Cable C-2', ID='C Ts-8' /
&DEVC QUANTITY='INSIDE WALL TEMPERATURE', INIT_ID='Cable C-2', ID='C Tc-9',  DEPTH=0.0012 /
&DEVC QUANTITY='WALL TEMPERATURE',        INIT_ID='Cable C-3', ID='C Ts-10' /
&DEVC QUANTITY='INSIDE WALL TEMPERATURE', INIT_ID='Cable C-3', ID='C Tc-11', DEPTH=0.0012 /
&DEVC QUANTITY='WALL TEMPERATURE',        INIT_ID='Cable D-2', ID='D Ts-12' /
&DEVC QUANTITY='INSIDE WALL TEMPERATURE', INIT_ID='Cable D-2', ID='D Tc-13', DEPTH=0.0012 /
&DEVC QUANTITY='WALL TEMPERATURE',        INIT_ID='Cable B-2', ID='B Ts-14' /
&DEVC QUANTITY='INSIDE WALL TEMPERATURE', INIT_ID='Cable B-2', ID='B Tc-15', DEPTH=0.0012 /
&DEVC QUANTITY='WALL TEMPERATURE',        INIT_ID='Cable A-2', ID='A Ts-18' /
&DEVC QUANTITY='INSIDE WALL TEMPERATURE', INIT_ID='Cable A-2', ID='A Tc-19', DEPTH=0.0012 /
&DEVC QUANTITY='WALL TEMPERATURE',        INIT_ID='Cable F-2', ID='F Ts-20' /
&DEVC QUANTITY='INSIDE WALL TEMPERATURE', INIT_ID='Cable F-2', ID='F Tc-21', DEPTH=0.0012 /
&DEVC QUANTITY='WALL TEMPERATURE',        INIT_ID='Cable C-4', ID='C Ts-22' /
&DEVC QUANTITY='INSIDE WALL TEMPERATURE', INIT_ID='Cable C-4', ID='C Tc-23', DEPTH=0.0012 /
&DEVC QUANTITY='WALL TEMPERATURE',        INIT_ID='Cable C-5', ID='C Ts-24' /
&DEVC QUANTITY='INSIDE WALL TEMPERATURE', INIT_ID='Cable C-5', ID='C Tc-25', DEPTH=0.0012 /
&DEVC QUANTITY='WALL TEMPERATURE',        INIT_ID='Cable D-3', ID='D Ts-26' /
&DEVC QUANTITY='WALL TEMPERATURE',        INIT_ID='Cable B-3', ID='B Ts-27' /
&DEVC QUANTITY='WALL TEMPERATURE',        INIT_ID='Cable A-3', ID='A Ts-29' /
&DEVC QUANTITY='WALL TEMPERATURE',        INIT_ID='Cable F-3', ID='F Ts-30' /
&DEVC QUANTITY='WALL TEMPERATURE',        INIT_ID='Cable G-1', ID='G Ts-31' /
&DEVC QUANTITY='WALL TEMPERATURE',        INIT_ID='Cable G-2', ID='G Ts-32' /
&DEVC QUANTITY='WALL TEMPERATURE',        INIT_ID='Cable G-3', ID='G Ts-33' /
&DEVC QUANTITY='INSIDE WALL TEMPERATURE', INIT_ID='Cable G-3', ID='G Tc-34', DEPTH=0.0012 /
&DEVC QUANTITY='WALL TEMPERATURE',        INIT_ID='Cable G-4', ID='G Ts-35' /
&DEVC QUANTITY='WALL TEMPERATURE',        INIT_ID='Cable G-5', ID='G Ts-36' /

Aspirated TCs

&DEVC XYZ= 0.10, 3.61, 0.20,QUANTITY='TEMPERATURE',ID='ATC Door 1'/
&DEVC XYZ= 0.10, 3.61, 1.00,QUANTITY='TEMPERATURE',ID='ATC Door 2'/
&DEVC XYZ= 0.10, 3.61, 1.80,QUANTITY='TEMPERATURE',ID='ATC Door 3'/
&DEVC XYZ=11.35, 7.04, 2.40,QUANTITY='TEMPERATURE',ID='ATC Exhaust 4'/
&DEVC XYZ=10.85, 0.55, 1.05,QUANTITY='TEMPERATURE',ID='ATC 5'/
&DEVC XYZ=10.85, 0.55, 2.80,QUANTITY='TEMPERATURE',ID='ATC 6'/

Wall Flux Gauges

&DEVC XYZ= 3.91, 7.04, 1.49,QUANTITY='GAUGE HEAT FLUX',IOR=-2,ID='N G-1'/
&DEVC XYZ= 3.91, 7.04, 3.72,QUANTITY='GAUGE HEAT FLUX',IOR=-2,ID='N G-2'/
&DEVC XYZ= 9.55, 7.04, 1.87,QUANTITY='GAUGE HEAT FLUX',IOR=-2,ID='N G-3'/
&DEVC XYZ=12.15, 7.04, 1.87,QUANTITY='GAUGE HEAT FLUX',IOR=-2,ID='N G-4'/
&DEVC XYZ=17.79, 7.04, 1.50,QUANTITY='GAUGE HEAT FLUX',IOR=-2,ID='N G-5'/
&DEVC XYZ=17.79, 7.04, 3.73,QUANTITY='GAUGE HEAT FLUX',IOR=-2,ID='N G-6'/

&DEVC XYZ= 3.91, 0.00, 1.49,QUANTITY='GAUGE HEAT FLUX',IOR= 2,ID='S G-1'/
&DEVC XYZ= 3.91, 0.00, 3.72,QUANTITY='GAUGE HEAT FLUX',IOR= 2,ID='S G-2'/
&DEVC XYZ= 9.55, 0.00, 1.87,QUANTITY='GAUGE HEAT FLUX',IOR= 2,ID='S G-3'/
&DEVC XYZ=12.15, 0.00, 1.87,QUANTITY='GAUGE HEAT FLUX',IOR= 2,ID='S G-4'/
&DEVC XYZ=17.79, 0.00, 1.50,QUANTITY='GAUGE HEAT FLUX',IOR= 2,ID='S G-5'/
&DEVC XYZ=17.79, 0.00, 3.73,QUANTITY='GAUGE HEAT FLUX',IOR= 2,ID='S G-6'/

&DEVC XYZ=21.70, 1.59, 1.12,QUANTITY='GAUGE HEAT FLUX',IOR=-1,ID='E G-1'/
&DEVC XYZ=21.70, 1.59, 2.43,QUANTITY='GAUGE HEAT FLUX',IOR=-1,ID='E G-2'/
&DEVC XYZ=21.70, 5.76, 1.12,QUANTITY='GAUGE HEAT FLUX',IOR=-1,ID='E G-3'/
&DEVC XYZ=21.70, 5.76, 2.43,QUANTITY='GAUGE HEAT FLUX',IOR=-1,ID='E G-4'/

&DEVC XYZ= 0.00, 1.59, 1.12,QUANTITY='GAUGE HEAT FLUX',IOR= 1,ID='W G-1'/
&DEVC XYZ= 0.00, 1.59, 2.43,QUANTITY='GAUGE HEAT FLUX',IOR= 1,ID='W G-2'/
&DEVC XYZ= 0.00, 5.76, 1.12,QUANTITY='GAUGE HEAT FLUX',IOR= 1,ID='W G-3'/
&DEVC XYZ= 0.00, 5.76, 2.43,QUANTITY='GAUGE HEAT FLUX',IOR= 1,ID='W G-4'/

&DEVC XYZ= 3.04, 3.59, 0.00,QUANTITY='GAUGE HEAT FLUX',IOR= 3,ID='F G-1'/
&DEVC XYZ= 9.11, 2.00, 0.00,QUANTITY='GAUGE HEAT FLUX',IOR= 3,ID='F G-2'/
&DEVC XYZ= 9.11, 5.97, 0.00,QUANTITY='GAUGE HEAT FLUX',IOR= 3,ID='F G-3'/
&DEVC XYZ=10.85, 2.39, 0.00,QUANTITY='GAUGE HEAT FLUX',IOR= 3,ID='F G-4'/
&DEVC XYZ=10.85, 5.17, 0.00,QUANTITY='GAUGE HEAT FLUX',IOR= 3,ID='F G-5'/
&DEVC XYZ=13.02, 2.00, 0.00,QUANTITY='GAUGE HEAT FLUX',IOR= 3,ID='F G-6'/
&DEVC XYZ=13.02, 5.97, 0.00,QUANTITY='GAUGE HEAT FLUX',IOR= 3,ID='F G-7'/
&DEVC XYZ=18.66, 3.59, 0.00,QUANTITY='GAUGE HEAT FLUX',IOR= 3,ID='F G-8'/

&DEVC XYZ= 3.04, 3.59, 3.82,QUANTITY='GAUGE HEAT FLUX',IOR=-3,ID='C G-1'/
&DEVC XYZ= 9.11, 2.00, 3.82,QUANTITY='GAUGE HEAT FLUX',IOR=-3,ID='C G-2'/
&DEVC XYZ= 9.11, 5.97, 3.82,QUANTITY='GAUGE HEAT FLUX',IOR=-3,ID='C G-3'/
&DEVC XYZ=10.85, 2.39, 3.82,QUANTITY='GAUGE HEAT FLUX',IOR=-3,ID='C G-4'/
&DEVC XYZ=10.85, 5.17, 3.82,QUANTITY='GAUGE HEAT FLUX',IOR=-3,ID='C G-5'/
&DEVC XYZ=13.02, 2.00, 3.82,QUANTITY='GAUGE HEAT FLUX',IOR=-3,ID='C G-6'/
&DEVC XYZ=13.02, 5.97, 3.82,QUANTITY='GAUGE HEAT FLUX',IOR=-3,ID='C G-7'/
&DEVC XYZ=18.66, 3.59, 3.82,QUANTITY='GAUGE HEAT FLUX',IOR=-3,ID='C G-8'/

Rad and Total Flux Gauges

&DEVC QUANTITY='GAUGE HEAT FLUX',INIT_ID='Gauge 1-2', ID='Total Flux Gauge 2'/
&DEVC QUANTITY='GAUGE HEAT FLUX',INIT_ID='Gauge 3-4', ID='Total Flux Gauge 4'/
&DEVC QUANTITY='GAUGE HEAT FLUX',INIT_ID='Gauge 5-6', ID='Total Flux Gauge 6'/
&DEVC QUANTITY='GAUGE HEAT FLUX',INIT_ID='Gauge 7-8', ID='Total Flux Gauge 8'/
&DEVC QUANTITY='GAUGE HEAT FLUX',INIT_ID='Gauge 9-10',ID='Total Flux Gauge 9'/

&DEVC QUANTITY='RADIOMETER',INIT_ID='Gauge 1-2', ID='Rad Gauge 1'/
&DEVC QUANTITY='RADIOMETER',INIT_ID='Gauge 3-4', ID='Rad Gauge 3'/
&DEVC QUANTITY='RADIOMETER',INIT_ID='Gauge 5-6', ID='Rad Gauge 5'/
&DEVC QUANTITY='RADIOMETER',INIT_ID='Gauge 7-8', ID='Rad Gauge 7'/
&DEVC QUANTITY='RADIOMETER',INIT_ID='Gauge 9-10',ID='Rad Gauge 10'/

Gaseous Sampling

&DEVC XYZ= 6.85, 3.48, 3.22,QUANTITY='VOLUME FRACTION', SPEC_ID='OXYGEN',    ID='O2 1'/
&DEVC XYZ= 6.85, 3.48, 0.50,QUANTITY='VOLUME FRACTION', SPEC_ID='OXYGEN',    ID='O2 2'/
&DEVC XYZ= 6.85, 3.48, 3.22,QUANTITY='VOLUME FRACTION', SPEC_ID='CARBON MONOXIDE',ID='CO 3'/
&DEVC XYZ= 6.85, 3.48, 3.22,QUANTITY='VOLUME FRACTION', SPEC_ID='CARBON DIOXIDE' ,ID='CO2 4'/

Bidirectional Probes

&DEVC XYZ= 0.10, 2.71, 0.20,QUANTITY='VELOCITY',   ID='BP Door 1'/
&DEVC XYZ= 0.10, 2.71, 0.60,QUANTITY='VELOCITY',   ID='BP Door 2'/
&DEVC XYZ= 0.10, 2.71, 1.00,QUANTITY='VELOCITY',   ID='BP Door 3'/
&DEVC XYZ= 0.10, 2.71, 1.40,QUANTITY='VELOCITY',   ID='BP Door 4'/
&DEVC XYZ= 0.10, 2.71, 1.80,QUANTITY='VELOCITY',   ID='BP Door 5'/
&DEVC XYZ= 0.10, 3.51, 0.20,QUANTITY='VELOCITY',   ID='BP Door 6'/
&DEVC XYZ= 0.10, 3.51, 0.60,QUANTITY='VELOCITY',   ID='BP Door 7'/
&DEVC XYZ= 0.10, 3.51, 1.00,QUANTITY='VELOCITY',   ID='BP Door 8'/
&DEVC XYZ= 0.10, 3.51, 1.40,QUANTITY='VELOCITY',   ID='BP Door 9'/
&DEVC XYZ= 0.10, 3.51, 1.80,QUANTITY='VELOCITY',   ID='BP Door 10'/
&DEVC XYZ= 0.10, 4.31, 0.20,QUANTITY='VELOCITY',   ID='BP Door 11'/
&DEVC XYZ= 0.10, 4.31, 0.60,QUANTITY='VELOCITY',   ID='BP Door 12'/
&DEVC XYZ= 0.10, 4.31, 1.00,QUANTITY='VELOCITY',   ID='BP Door 13'/
&DEVC XYZ= 0.10, 4.31, 1.40,QUANTITY='VELOCITY',   ID='BP Door 14'/
&DEVC XYZ= 0.10, 4.31, 1.80,QUANTITY='VELOCITY',   ID='BP Door 15'/
&DEVC XYZ=11.35, 0.00, 2.40,QUANTITY='VELOCITY',   ID='BP Supply 16'/
&DEVC XYZ=11.35, 7.04, 2.40,QUANTITY='VELOCITY',   ID='BP Exhaust 17'/
&DEVC XYZ= 0.00, 0.30, 0.08,QUANTITY='VELOCITY',   ID='BP Leak 18'/

Smoke Obscuration/Concentration

&DEVC XYZ=21.10, 0.50, 3.60, QUANTITY='DENSITY', SPEC_ID='SOOT', UNITS='mg/m3', CONVERSION_FACTOR=1.E6, ID='Smoke Concentration' /

Compartment Pressure

&DEVC XYZ=10.85, 0.10, 0.10,QUANTITY='PRESSURE',   ID='Pressure'/

Spray Nozzles

&DEVC XYZ=10.8,3.6,0.6, PROP_ID='nozzle', QUANTITY='TIME', SETPOINT=0., ID='fuel_nozzle' /

&TAIL /
