&HEAD CHID='PBT_60_kW', TITLE='Parallel Panel Test, PBT, Propane, 60 kW' /

&MESH IJK=15,20,20, XB=-0.60,-0.30,-0.40,0.00,-0.30,0.10, MULT_ID='mesh' /
&MULT ID='mesh', DX=0.3, DY=0.4, DZ=0.4, I_UPPER=3, J_UPPER=1, K_UPPER=11 /

&TIME T_END=900.0 /

&REAC SOOT_YIELD=0.02
      FUEL='PBT' 
      FORMULA='C4H10O2' 
      FUEL_RADCAL_ID='MMA' /  4th SFPE Handbook, HoC, Table C.2; Soot, Table 3-4.16

&MATL ID='Kaowool'
      CONDUCTIVITY = 0.08
      SPECIFIC_HEAT = 0.80
      DENSITY = 48. /

&SURF ID='BURNER', HRRPUA=333., COLOR='RED', RAMP_Q='fire', MATL_ID='Kaowool', THICKNESS=0.2 /
&RAMP ID='fire', T=  0., F=0. /
&RAMP ID='fire', T= 10., F=1. /
&RAMP ID='fire', T=180., F=1. /
&RAMP ID='fire', T=181., F=1. /
&RAMP ID='fire', T=900., F=1. /

&SURF ID = 'SAMPLE FRONT'
      COLOR  = 'BLACK'
      MATL_ID  = 'PBT','MARINITE'
      THICKNESS = 0.00635,0.0254 /

&SURF ID = 'SAMPLE BACK'
      COLOR  = 'BEIGE'
      MATL_ID  = 'MARINITE','PBT'
      THICKNESS = 0.0254,0.00635 /

&MATL ID='PBT'
      ABSORPTION_COEFFICIENT=2560.
      N_REACTIONS=1
      A(1) = 2.49E14
      E(1) = 2.12E5
      EMISSIVITY=0.88
      DENSITY=1300.
      SPEC_ID='PBT'
      NU_SPEC=1.
      HEAT_OF_REACTION=507.
      HEAT_OF_COMBUSTION=19500.
      CONDUCTIVITY = 0.29
      SPECIFIC_HEAT = 2.23 /

&MATL ID            = 'MARINITE'
      EMISSIVITY    = 0.9
      DENSITY       = 737.
      SPECIFIC_HEAT = 1.2
      CONDUCTIVITY  = 0.12 /

&MATL ID            = 'STEEL'
      EMISSIVITY    = 0.9
      DENSITY       = 7800.
      SPECIFIC_HEAT = 0.465        
      CONDUCTIVITY  = 43. /

&SURF ID            = 'STEEL'
      MATL_ID       = 'STEEL'
      THICKNESS     = 0.003
      COLOR         = 'BLACK' /

&OBST XB = -0.30,  0.30, -0.15,  0.15, -0.30, 0.00, SURF_IDS = 'BURNER','STEEL','STEEL' /
&OBST XB = -0.30,  0.30,  0.15,  0.19, -0.30, 2.44, SURF_ID6 = 'STEEL','STEEL','SAMPLE FRONT','SAMPLE BACK','STEEL','STEEL'  /
&OBST XB = -0.30,  0.30, -0.19, -0.15, -0.30, 2.44, SURF_ID6 = 'STEEL','STEEL','SAMPLE BACK','SAMPLE FRONT','STEEL','STEEL'  /

&VENT MB='XMIN', SURF_ID='OPEN' /
&VENT MB='XMAX', SURF_ID='OPEN' /
&VENT MB='YMIN', SURF_ID='OPEN' /
&VENT MB='YMAX', SURF_ID='OPEN' /
&VENT MB='ZMAX', SURF_ID='OPEN' /

&DEVC ID='Flux', XB=0.0,0.0,0.16,0.16,0.01,2.43, POINTS=50, Z_ID='Height',           QUANTITY='GAUGE HEAT FLUX',  IOR=-2, TIME_HISTORY=.TRUE. /
&DEVC ID='Temp', XB=0.0,0.0,0.16,0.16,0.01,2.43, POINTS=50, HIDE_COORDINATES=.TRUE., QUANTITY='WALL TEMPERATURE', IOR=-2, TIME_HISTORY=.TRUE. /

&BNDF QUANTITY='GAUGE HEAT FLUX'  /
&BNDF QUANTITY='BURNING RATE'  /
&BNDF QUANTITY='WALL TEMPERATURE'  /

&DUMP DT_SLCF=0.2, DT_BNDF=1., DT_DEVC=15., DT_HRR=15., SIG_FIGS=4, SIG_FIGS_EXP=2 /

&SLCF PBX=0.00 QUANTITY='TEMPERATURE', VECTOR=.TRUE. /
 
&TAIL /
