&HEAD CHID='PMMA_60_kW', TITLE='Parallel Panel Test, PMMA, Propane, 60 kW' /

&MESH IJK=15,20,20, XB=-0.60,-0.30,-0.40,0.00,-0.30,0.10, MULT_ID='mesh' /
&MULT ID='mesh', DX=0.3, DY=0.4, DZ=0.4, I_UPPER=3, J_UPPER=1, K_UPPER=11 /

&TIME T_END=900.0 /

&REAC ID='PROPANE', FUEL='PROPANE', SOOT_YIELD=0.024, RADIATIVE_FRACTION=0.3 /

&SPEC ID='MMA', FORMULA='C5H8O2', SPECIFIC_HEAT=1.1, RADCAL_ID='MMA', SIGMALJ=4.701, EPSILONKLJ=205.78 /

&REAC FUEL='MMA', SOOT_YIELD=0.022, CO_YIELD=0.01, RADIATIVE_FRACTION=0.31 /  Tewarson, 4th SFPE Handbook, Table 3-4.16

&MATL ID='BLACK PMMA'
      ABSORPTION_COEFFICIENT=2870.
      A(1) = 4.95E16
      E(1) = 1.64E5
      EMISSIVITY=0.96
      DENSITY= 1210.
      SPEC_ID='MMA'
      NU_SPEC= 0.02
      MATL_ID='PMMA_INT'
      NU_MATL=0.98
      CONDUCTIVITY_RAMP ='k_PMMA'
      SPECIFIC_HEAT_RAMP = 'cp_PMMA'
      HEAT_OF_REACTION = 5. /

&MATL ID='PMMA_INT'
      ABSORPTION_COEFFICIENT=2870.
      A(1) = 1.35E11
      E(1) = 1.64E5
      EMISSIVITY=0.96
      DENSITY= 1210.
      SPEC_ID='MMA'
      NU_SPEC= 0.98
      MATL_ID='PMMA_CHAR'
      NU_MATL=0.02
      CONDUCTIVITY_RAMP ='k_PMMA'
      SPECIFIC_HEAT_RAMP = 'cp_PMMA'
      HEAT_OF_REACTION = 817. /

&MATL ID='PMMA_CHAR'
      ABSORPTION_COEFFICIENT=2870.
      EMISSIVITY=0.96
      DENSITY=1210.
      CONDUCTIVITY_RAMP = 'k_PMMA'
      SPECIFIC_HEAT_RAMP = 'cp_PMMA' /

&RAMP ID='k_PMMA', T= 20., F=0.160 /
&RAMP ID='k_PMMA', T=122., F=0.160 /
&RAMP ID='k_PMMA', T=500., F=0.015 /

&RAMP ID='cp_PMMA', T= 20., F=1.05 /
&RAMP ID='cp_PMMA', T=122., F=1.90 /
&RAMP ID='cp_PMMA', T=500., F=3.22 /


&MATL ID = 'GRAVEL'
      CONDUCTIVITY = 0.7
      SPECIFIC_HEAT = 1.
      DENSITY = 2000. /

&SURF ID='BURNER', SPEC_ID='PROPANE', HRRPUA=333., COLOR='RED', RAMP_Q='fire', MATL_ID='GRAVEL', THICKNESS=0.2 /
&RAMP ID='fire', T=  0., F=0. /
&RAMP ID='fire', T= 10., F=1. /
&RAMP ID='fire', T=180., F=1. /
&RAMP ID='fire', T=181., F=1. /
&RAMP ID='fire', T=900., F=1. /

&SURF ID = 'SAMPLE FRONT'
      COLOR  = 'BLACK'
      MATL_ID  = 'BLACK PMMA','MARINITE'
      THICKNESS = 0.00635,0.0254 /

&SURF ID = 'SAMPLE BACK'
      COLOR  = 'BEIGE'
      MATL_ID  = 'MARINITE','BLACK PMMA'
      THICKNESS = 0.0254,0.00635 /

&MATL ID            = 'MARINITE'
      EMISSIVITY    = 0.9
      DENSITY       = 737.
      SPECIFIC_HEAT = 1.2
      CONDUCTIVITY  = 0.12 /

&MATL ID            = 'STEEL'
      EMISSIVITY    = 0.9
      DENSITY       = 7800.
      SPECIFIC_HEAT = 0.465        
      CONDUCTIVITY  = 43. /

&SURF ID            = 'STEEL'
      MATL_ID       = 'STEEL'
      THICKNESS     = 0.003
      COLOR         = 'BLACK' /

&OBST XB = -0.30,  0.30, -0.15,  0.15, -0.30, 0.00, SURF_IDS = 'BURNER','STEEL','STEEL' /
&OBST XB = -0.30,  0.30,  0.15,  0.17, -0.30, 2.44, SURF_ID6 = 'STEEL','STEEL','SAMPLE FRONT','SAMPLE BACK','STEEL','STEEL'  /
&OBST XB = -0.30,  0.30, -0.17, -0.15, -0.30, 2.44, SURF_ID6 = 'STEEL','STEEL','SAMPLE BACK','SAMPLE FRONT','STEEL','STEEL'  /

&VENT MB='XMIN', SURF_ID='OPEN' /
&VENT MB='XMAX', SURF_ID='OPEN' /
&VENT MB='YMIN', SURF_ID='OPEN' /
&VENT MB='YMAX', SURF_ID='OPEN' /
&VENT MB='ZMAX', SURF_ID='OPEN' /

&DEVC ID='Flux', XB=0.0,0.0,0.16,0.16,0.01,2.43, POINTS=50, Z_ID='Height',           QUANTITY='GAUGE HEAT FLUX',  IOR=-2, TIME_HISTORY=.TRUE. /
&DEVC ID='Temp', XB=0.0,0.0,0.16,0.16,0.01,2.43, POINTS=50, HIDE_COORDINATES=.TRUE., QUANTITY='WALL TEMPERATURE', IOR=-2, TIME_HISTORY=.TRUE. /

&BNDF QUANTITY='GAUGE HEAT FLUX'  /
&BNDF QUANTITY='BURNING RATE'  /
&BNDF QUANTITY='WALL TEMPERATURE'  /

&DUMP DT_SLCF=0.2, DT_BNDF=1., DT_DEVC=15., DT_HRR=15., SIG_FIGS=4, SIG_FIGS_EXP=2 /

&SLCF PBX=0.00 QUANTITY='TEMPERATURE', VECTOR=.TRUE. /
 
&TAIL /
