&HEAD CHID='PMMA_60_kW_2_cm', TITLE='Parallel Panel Test, Black PMMA, Propane, 60 kW' /

&MESH IJK=10,15,15, XB=-0.60,-0.40,-0.45,-0.15,-0.30,0.00, MULT_ID='mesh' /
&MULT ID='mesh', DX=0.2, DY=0.3, DZ=0.3, I_UPPER=5, J_UPPER=2, K_UPPER=15 /

&TIME T_END=600.0 /

&REAC ID='PROPANE', FUEL='PROPANE', SOOT_YIELD=0.024, RADIATIVE_FRACTION=0.29 /

&SPEC ID='MMA', FORMULA='C5O2H8', RADCAL_ID='MMA', RAMP_CP='MMA CP'/
&RAMP ID='MMA CP', T=114, F=1.48 / https://www.chemeo.com/cid/57-301-4/Methyl-methacrylate
&RAMP ID='MMA CP', T=300, F=1.90 /
&REAC FUEL='MMA', SOOT_YIELD=0.022, CO_YIELD=0.010, RADIATIVE_FRACTION=0.35, HEAT_OF_COMBUSTION=25610 /

&MATL ID='BLACK PMMA'
      ABSORPTION_COEFFICIENT=2870.
      A(1) = 4.95E16
      E(1) = 1.64E5
      EMISSIVITY=0.96
      DENSITY= 1210.
      SPEC_ID='MMA'
      NU_SPEC= 0.02
      MATL_ID='PMMA_INT'
      NU_MATL=0.98
      CONDUCTIVITY_RAMP ='k_PMMA'
      SPECIFIC_HEAT_RAMP = 'cp_PMMA'
      HEAT_OF_REACTION = 5. /

&MATL ID='PMMA_INT'
      ABSORPTION_COEFFICIENT=2870.
      A(1) = 1.35E11
      E(1) = 1.64E5
      EMISSIVITY=0.96
      DENSITY= 1210.
      SPEC_ID='MMA'
      NU_SPEC= 0.98
      MATL_ID='PMMA_CHAR'
      NU_MATL=0.02
      CONDUCTIVITY_RAMP ='k_PMMA'
      SPECIFIC_HEAT_RAMP = 'cp_PMMA'
      HEAT_OF_REACTION = 817. /

&MATL ID='PMMA_CHAR'
      ABSORPTION_COEFFICIENT=2870.
      EMISSIVITY=0.96
      DENSITY=1210.
      CONDUCTIVITY_RAMP = 'k_PMMA'
      SPECIFIC_HEAT_RAMP = 'cp_PMMA' /

&RAMP ID='k_PMMA', T= 20., F=0.160 /
&RAMP ID='k_PMMA', T=122., F=0.160 /
&RAMP ID='k_PMMA', T=500., F=0.015 /

&RAMP ID='cp_PMMA', T= 20., F=1.05 /
&RAMP ID='cp_PMMA', T=122., F=1.90 /
&RAMP ID='cp_PMMA', T=500., F=3.22 /

&MATL ID = 'MINERAL WOOL'
      CONDUCTIVITY = 0.035
      SPECIFIC_HEAT = 0.8
      DENSITY = 70. /

&SURF ID='BURNER', SPEC_ID='PROPANE', HRRPUA=333.3, COLOR='RED', RAMP_Q='fire', MATL_ID='MINERAL WOOL', THICKNESS=0.05, ROUGHNESS=0.005 /
&RAMP ID='fire', T=  0., F=0.00 /
&RAMP ID='fire', T= 20., F=0.37 /
&RAMP ID='fire', T= 40., F=0.83 /
&RAMP ID='fire', T= 60., F=0.98 /
&RAMP ID='fire', T= 80., F=1.05 /
&RAMP ID='fire', T=120., F=1.05 /
&RAMP ID='fire', T=130., F=0.50 /

&SURF ID = 'SAMPLE FRONT'
      ROUGHNESS = 0.002
      COLOR  = 'BLACK'
      MATL_ID  = 'BLACK PMMA','MARINITE'
      THICKNESS = 0.00635,0.0254 /

&SURF ID = 'SAMPLE BACK'
      ROUGHNESS = 0.002
      COLOR  = 'BEIGE'
      MATL_ID  = 'MARINITE','BLACK PMMA'
      THICKNESS = 0.0254,0.00635 /

&MATL ID            = 'MARINITE'
      EMISSIVITY    = 0.9
      DENSITY       = 737.
      SPECIFIC_HEAT = 1.2
      CONDUCTIVITY  = 0.12 /

&MATL ID            = 'STEEL'
      EMISSIVITY    = 0.9
      DENSITY       = 7800.
      SPECIFIC_HEAT = 0.465
      CONDUCTIVITY  = 43. /

&SURF ID            = 'STEEL'
      ROUGHNESS = 0.002
      MATL_ID       = 'STEEL'
      THICKNESS     = 0.003
      COLOR         = 'BLACK' /

&OBST XB = -0.30,  0.30, -0.15,  0.15, -0.30,-0.00, SURF_IDS = 'BURNER','STEEL','STEEL' /
&OBST XB = -0.30,  0.30,  0.15,  0.17,  0.00, 2.44, SURF_ID6 = 'STEEL','STEEL','SAMPLE FRONT','SAMPLE BACK','STEEL','STEEL'  /
&OBST XB = -0.30,  0.30, -0.17, -0.15,  0.00, 2.44, SURF_ID6 = 'STEEL','STEEL','SAMPLE BACK','SAMPLE FRONT','STEEL','STEEL'  /

&VENT MB='XMIN', SURF_ID='OPEN', DYNAMIC_PRESSURE= 0.05, PRESSURE_RAMP='noise' /
&VENT MB='XMAX', SURF_ID='OPEN', DYNAMIC_PRESSURE=-0.05, PRESSURE_RAMP='noise' /
&VENT MB='YMIN', SURF_ID='OPEN' /
&VENT MB='YMAX', SURF_ID='OPEN' /
&VENT MB='ZMAX', SURF_ID='OPEN' /

&DEVC ID='t', QUANTITY='TIME', XYZ=0,0,0 /
&CTRL ID='2*pi*t/10', FUNCTION_TYPE='MULTIPLY', INPUT_ID='CONSTANT','t', CONSTANT=0.62831853 /
&CTRL ID='sin(2*pi*t/10)', FUNCTION_TYPE='SIN', INPUT_ID='2*pi*t/10' /
&RAMP ID='noise', T=-1, F=-1, CTRL_ID='sin(2*pi*t/10)' /
&RAMP ID='noise', T= 1, F= 1 /

&DEVC ID='Flux', XB=0.0,0.0,0.15,0.15,0.01,2.43, POINTS=50, Z_ID='Height',           QUANTITY='GAUGE HEAT FLUX',          IOR=-2, TIME_HISTORY=T /
&DEVC ID='Temp', XB=0.0,0.0,0.15,0.15,0.01,2.43, POINTS=50, HIDE_COORDINATES=.TRUE., QUANTITY='WALL TEMPERATURE',         IOR=-2, TIME_HISTORY=T /
&DEVC ID='CHF',  XB=0.0,0.0,0.15,0.15,0.01,2.43, POINTS=50, HIDE_COORDINATES=.TRUE., QUANTITY='CONVECTIVE HEAT FLUX',     IOR=-2, TIME_HISTORY=T /
&DEVC ID='RHF',  XB=0.0,0.0,0.15,0.15,0.01,2.43, POINTS=50, HIDE_COORDINATES=.TRUE., QUANTITY='RADIATIVE HEAT FLUX',      IOR=-2, TIME_HISTORY=T /
&DEVC ID='MLR',  XB=0.0,0.0,0.15,0.15,0.01,2.43, POINTS=50, HIDE_COORDINATES=.TRUE., QUANTITY='MASS FLUX', SPEC_ID='MMA', IOR=-2, TIME_HISTORY=T /

&BNDF QUANTITY='GAUGE HEAT FLUX', CELL_CENTERED=T  /
&BNDF QUANTITY='BURNING RATE', CELL_CENTERED=T  /
&BNDF QUANTITY='WALL TEMPERATURE', CELL_CENTERED=T  /
&BNDF QUANTITY='RADIATIVE HEAT FLUX', CELL_CENTERED=T  /
&BNDF QUANTITY='CONVECTIVE HEAT FLUX', CELL_CENTERED=T  /
&BNDF QUANTITY='HEAT TRANSFER COEFFICIENT', CELL_CENTERED=T  /

&DUMP DT_BNDF=1., DT_DEVC=2., DT_HRR=2., SIG_FIGS=4, SIG_FIGS_EXP=2 /

&SLCF PBX=0.00 QUANTITY='TEMPERATURE', VECTOR=.TRUE. /
&SLCF PBY=0.00 QUANTITY='VELOCITY', VECTOR=.TRUE. /

&ISOF QUANTITY='HRRPUV', VALUE=200 /

&TAIL /
