&HEAD CHID='PVC_60_kW', TITLE='Parallel Panel Test, PVC, Propane, 60 kW' /

&MESH IJK=15,20,20, XB=-0.60,-0.30,-0.40,0.00,-0.30,0.10, MULT_ID='mesh' /
&MULT ID='mesh', DX=0.3, DY=0.4, DZ=0.4, I_UPPER=3, J_UPPER=1, K_UPPER=11 /

&TIME T_END=900.0 /

&SPEC ID = 'PVC', FORMULA = 'C2H3Cl' /
&SPEC ID = 'OXYGEN', LUMPED_COMPONENT_ONLY = .TRUE. /
&SPEC ID = 'NITROGEN', LUMPED_COMPONENT_ONLY = .TRUE. /
&SPEC ID = 'HYDROGEN CHLORIDE', LUMPED_COMPONENT_ONLY = .TRUE. /
&SPEC ID = 'WATER VAPOR', LUMPED_COMPONENT_ONLY = .TRUE. /
&SPEC ID = 'CARBON MONOXIDE', LUMPED_COMPONENT_ONLY = .TRUE. /
&SPEC ID = 'CARBON DIOXIDE', LUMPED_COMPONENT_ONLY = .TRUE. /
&SPEC ID = 'SOOT',FORMULA='C', LUMPED_COMPONENT_ONLY = .TRUE. /

&SPEC ID='AIR', BACKGROUND=.TRUE.
      SPEC_ID(1)='OXYGEN', VOLUME_FRACTION(1)=1.53,
      SPEC_ID(2)='NITROGEN', VOLUME_FRACTION(2)=5.76 /
&SPEC ID='PRODUCTS',
      SPEC_ID(1)='HYDROGEN CHLORIDE', VOLUME_FRACTION(1)=1.0,
      SPEC_ID(2)='WATER VAPOR', VOLUME_FRACTION(2)=1.0,
      SPEC_ID(3)='CARBON MONOXIDE', VOLUME_FRACTION(3)=0.14,
      SPEC_ID(4)='CARBON DIOXIDE', VOLUME_FRACTION(4)=0.96,
      SPEC_ID(5)='SOOT', VOLUME_FRACTION(5)=0.90,
      SPEC_ID(6)='NITROGEN', VOLUME_FRACTION(6)=5.76 /

&REAC FUEL='PVC', HEAT_OF_COMBUSTION=16400, SPEC_ID_NU='PVC','AIR','PRODUCTS', NU=-1,-1,1 /

&MATL ID='Kaowool'
      CONDUCTIVITY = 0.08
      SPECIFIC_HEAT = 0.80
      DENSITY = 48. /

&SURF ID='BURNER', HRRPUA=333., COLOR='RED', RAMP_Q='fire', MATL_ID='Kaowool', THICKNESS=0.2 /
&RAMP ID='fire', T=  0., F=0. /
&RAMP ID='fire', T= 10., F=1. /
&RAMP ID='fire', T=180., F=1. /
&RAMP ID='fire', T=181., F=1. /
&RAMP ID='fire', T=900., F=1. /

&SURF ID = 'SAMPLE FRONT'
      COLOR  = 'BLACK'
      MATL_ID  = 'PVC','MARINITE'
      THICKNESS = 0.00635,0.0254 /

&SURF ID = 'SAMPLE BACK'
      COLOR  = 'BEIGE'
      MATL_ID  = 'MARINITE','PVC'
      THICKNESS = 0.0254,0.00635 /

&MATL ID='PVC'
      ABSORPTION_COEFFICIENT=2145.
      N_REACTIONS=1
      A(1) = 1.4E33
      E(1) = 3.67E5
      EMISSIVITY=0.90
      DENSITY=1430.
      SPEC_ID='PVC'
      NU_SPEC=0.56
      MATL_ID='CHAR 1'
      NU_MATL=0.44
      HEAT_OF_REACTION=170.
      HEAT_OF_COMBUSTION=2025.
      CONDUCTIVITY = 0.17
      SPECIFIC_HEAT = 1.55 /

&MATL ID='CHAR 1'
      ABSORPTION_COEFFICIENT=2453.
      N_REACTIONS=1
      A(1) = 3.5E12
      E(1) = 2.07E5
      EMISSIVITY=0.90
      DENSITY=629.
      SPEC_ID='PVC'
      NU_SPEC=0.53
      MATL_ID='CHAR 2'
      NU_MATL=0.47
      HEAT_OF_REACTION=1200.
      HEAT_OF_COMBUSTION=27375.
      CONDUCTIVITY = 0.17
      SPECIFIC_HEAT = 1.55 /

&MATL ID='CHAR 2'
      ABSORPTION_COEFFICIENT=29600.
      EMISSIVITY=0.85
      DENSITY=296.
      CONDUCTIVITY=0.26
      SPECIFIC_HEAT=1.72 /

&MATL ID            = 'MARINITE'
      EMISSIVITY    = 0.9
      DENSITY       = 737.
      SPECIFIC_HEAT = 1.2
      CONDUCTIVITY  = 0.12 /

&MATL ID            = 'STEEL'
      EMISSIVITY    = 0.9
      DENSITY       = 7800.
      SPECIFIC_HEAT = 0.465        
      CONDUCTIVITY  = 43. /

&SURF ID            = 'STEEL'
      MATL_ID       = 'STEEL'
      THICKNESS     = 0.003
      COLOR         = 'BLACK' /

&OBST XB = -0.30,  0.30, -0.15,  0.15, -0.30, 0.00, SURF_IDS = 'BURNER','STEEL','STEEL' /
&OBST XB = -0.30,  0.30,  0.15,  0.19, -0.30, 2.44, SURF_ID6 = 'STEEL','STEEL','SAMPLE FRONT','SAMPLE BACK','STEEL','STEEL'  /
&OBST XB = -0.30,  0.30, -0.19, -0.15, -0.30, 2.44, SURF_ID6 = 'STEEL','STEEL','SAMPLE BACK','SAMPLE FRONT','STEEL','STEEL'  /

&VENT MB='XMIN', SURF_ID='OPEN' /
&VENT MB='XMAX', SURF_ID='OPEN' /
&VENT MB='YMIN', SURF_ID='OPEN' /
&VENT MB='YMAX', SURF_ID='OPEN' /
&VENT MB='ZMAX', SURF_ID='OPEN' /

&DEVC ID='Flux', XB=0.0,0.0,0.16,0.16,0.01,2.43, POINTS=50, Z_ID='Height',           QUANTITY='GAUGE HEAT FLUX',  IOR=-2, TIME_HISTORY=.TRUE. /
&DEVC ID='Temp', XB=0.0,0.0,0.16,0.16,0.01,2.43, POINTS=50, HIDE_COORDINATES=.TRUE., QUANTITY='WALL TEMPERATURE', IOR=-2, TIME_HISTORY=.TRUE. /

&BNDF QUANTITY='GAUGE HEAT FLUX'  /
&BNDF QUANTITY='BURNING RATE'  /
&BNDF QUANTITY='WALL TEMPERATURE'  /

&DUMP DT_SLCF=0.2, DT_BNDF=1., DT_DEVC=15., DT_HRR=15., SIG_FIGS=4, SIG_FIGS_EXP=2 /

&SLCF PBX=0.00 QUANTITY='TEMPERATURE', VECTOR=.TRUE. /
 
&TAIL /
