&HEAD CHID='PMMA_60_kW_1_cm_spyro', TITLE='Parallel Panel Test, Black PMMA, Propane, 60 kW' /

&MESH IJK=30,40,40, XB=-0.60,-0.30,-0.40,0.00,-0.30,0.10, MULT_ID='mesh' /
&MULT ID='mesh', DX=0.3, DY=0.4, DZ=0.4, I_UPPER=3, J_UPPER=1, K_UPPER=11 /

&TIME T_END=600.0 /

&REAC ID='PROPANE', FUEL='PROPANE', SOOT_YIELD=0.024, RADIATIVE_FRACTION=0.29 /

&SPEC ID='MMA', FORMULA='C5H8O2', SPECIFIC_HEAT=1.1, RADCAL_ID='MMA', SIGMALJ=4.701, EPSILONKLJ=205.78 /

&REAC FUEL='MMA', SOOT_YIELD=0.022, CO_YIELD=0.01, RADIATIVE_FRACTION=0.31 /  Tewarson, 4th SFPE Handbook, Table 3-4.16

&MATL ID='PMMA_SCALING'
      ABSORPTION_COEFFICIENT=2870.
      EMISSIVITY=0.96
      DENSITY= 1210.
      CONDUCTIVITY_RAMP ='k_PMMA'
      SPECIFIC_HEAT_RAMP = 'cp_PMMA' /

&SURF ID = 'SAMPLE FRONT'
      COLOR      = 'BLACK'
      MATL_ID    = 'PMMA_SCALING','MARINITE'
      THICKNESS  = 0.00635,0.0254
      RAMP_Q     = 'CONE-RAMP',
      HRRPUA     = 1.
      SPEC_ID    = 'MMA'
      REFERENCE_HEAT_FLUX = 57.9,
      REFERENCE_HEAT_FLUX_TIME_INTERVAL=1.,
      IGNITION_TEMPERATURE = 371.,
      HEAT_OF_VAPORIZATION = 817. /

&SURF ID = 'SAMPLE BACK'
      COLOR      = 'BEIGE'
      MATL_ID    = 'MARINITE','PMMA_SCALING'
      THICKNESS  = 0.0254,0.00635 /

&RAMP ID='k_PMMA', T= 20., F=0.160 /
&RAMP ID='k_PMMA', T=122., F=0.160 /
&RAMP ID='k_PMMA', T=500., F=0.015 /

&RAMP ID='cp_PMMA', T= 20., F=1.05 /
&RAMP ID='cp_PMMA', T=122., F=1.90 /
&RAMP ID='cp_PMMA', T=500., F=3.22 /

&RAMP ID='CONE-RAMP', T=0.0000, F=0.0, /
&RAMP ID='CONE-RAMP', T=0.1000, F=247.4, /
&RAMP ID='CONE-RAMP', T=1.9000, F=277.5, /
&RAMP ID='CONE-RAMP', T=4.4000, F=314.8, /
&RAMP ID='CONE-RAMP', T=6.3000, F=337.4, /
&RAMP ID='CONE-RAMP', T=8.2000, F=356.9, /
&RAMP ID='CONE-RAMP', T=10.1000, F=373.2, /
&RAMP ID='CONE-RAMP', T=11.6000, F=382.5, /
&RAMP ID='CONE-RAMP', T=14.1000, F=394.3, /
&RAMP ID='CONE-RAMP', T=16.4000, F=401.4, /
&RAMP ID='CONE-RAMP', T=19.4000, F=407.8, /
&RAMP ID='CONE-RAMP', T=33.3000, F=423.4, /
&RAMP ID='CONE-RAMP', T=58.7000, F=437.5, /
&RAMP ID='CONE-RAMP', T=76.5000, F=457.8, /
&RAMP ID='CONE-RAMP', T=86.9000, F=476.4, /
&RAMP ID='CONE-RAMP', T=93.7000, F=485.0, /
&RAMP ID='CONE-RAMP', T=103.6000, F=504.7, /
&RAMP ID='CONE-RAMP', T=109.5000, F=512.1, /
&RAMP ID='CONE-RAMP', T=122.7000, F=535.4, /
&RAMP ID='CONE-RAMP', T=140.9000, F=572.5, /
! ... 27 like lines cut

&MATL ID = 'MINERAL WOOL'
      CONDUCTIVITY = 0.035
      SPECIFIC_HEAT = 0.8
      DENSITY = 70. /

&SURF ID='BURNER', SPEC_ID='PROPANE', HRRPUA=333.3, COLOR='RED', RAMP_Q='fire', MATL_ID='MINERAL WOOL', THICKNESS=0.05 /
&RAMP ID='fire', T=  0., F=0.00 /
&RAMP ID='fire', T= 20., F=0.37 /
&RAMP ID='fire', T= 40., F=0.83 /
&RAMP ID='fire', T= 60., F=0.98 /
&RAMP ID='fire', T= 80., F=1.05 /
&RAMP ID='fire', T=120., F=1.05 /
&RAMP ID='fire', T=130., F=0.50 /

&SURF ID='WOOL', COLOR='BEIGE', MATL_ID='MINERAL WOOL', THICKNESS=0.05 /

&MATL ID            = 'MARINITE'
      EMISSIVITY    = 0.9
      DENSITY       = 737.
      SPECIFIC_HEAT = 1.2
      CONDUCTIVITY  = 0.12 /

&MATL ID            = 'STEEL'
      EMISSIVITY    = 0.9
      DENSITY       = 7800.
      SPECIFIC_HEAT = 0.465        
      CONDUCTIVITY  = 43. /

&SURF ID            = 'STEEL'
      MATL_ID       = 'STEEL'
      THICKNESS     = 0.003
      COLOR         = 'BLACK' /

&OBST XB = -0.30,  0.30, -0.14,  0.16, -0.30,-0.00, SURF_IDS = 'BURNER','STEEL','STEEL' /
&OBST XB = -0.30,  0.30,  0.16,  0.18,  0.00, 2.44, SURF_ID6 = 'STEEL','STEEL','SAMPLE FRONT','SAMPLE BACK','STEEL','STEEL'  /
&OBST XB = -0.30,  0.30, -0.16, -0.14,  0.00, 2.44, SURF_ID6 = 'STEEL','STEEL','SAMPLE BACK','SAMPLE FRONT','STEEL','STEEL'  /

&VENT MB='XMIN', SURF_ID='OPEN', DYNAMIC_PRESSURE= 0.05, PRESSURE_RAMP='noise' / 
&VENT MB='XMAX', SURF_ID='OPEN', DYNAMIC_PRESSURE=-0.05, PRESSURE_RAMP='noise' / 
&VENT MB='YMIN', SURF_ID='OPEN' /
&VENT MB='YMAX', SURF_ID='OPEN' /
&VENT MB='ZMAX', SURF_ID='OPEN' /

&DEVC ID='t', QUANTITY='TIME', XYZ=0,0,0 /
&CTRL ID='2*pi*t/10', FUNCTION_TYPE='MULTIPLY', INPUT_ID='CONSTANT','t', CONSTANT=0.62831853 /
&CTRL ID='sin(2*pi*t/10)', FUNCTION_TYPE='SIN', INPUT_ID='2*pi*t/10' /
&RAMP ID='noise', T=-1, F=-1, CTRL_ID='sin(2*pi*t/10)' /
&RAMP ID='noise', T= 1, F= 1 /

&DEVC ID='Flux', XB=0.0,0.0,0.16,0.16,0.01,2.43, POINTS=50, Z_ID='Height',           QUANTITY='GAUGE HEAT FLUX',          IOR=-2, TIME_HISTORY=T /
&DEVC ID='Temp', XB=0.0,0.0,0.16,0.16,0.01,2.43, POINTS=50, HIDE_COORDINATES=.TRUE., QUANTITY='WALL TEMPERATURE',         IOR=-2, TIME_HISTORY=T /
&DEVC ID='CHF',  XB=0.0,0.0,0.16,0.16,0.01,2.43, POINTS=50, HIDE_COORDINATES=.TRUE., QUANTITY='CONVECTIVE HEAT FLUX',     IOR=-2, TIME_HISTORY=T /
&DEVC ID='RHF',  XB=0.0,0.0,0.16,0.16,0.01,2.43, POINTS=50, HIDE_COORDINATES=.TRUE., QUANTITY='RADIATIVE HEAT FLUX',      IOR=-2, TIME_HISTORY=T /
&DEVC ID='MLR',  XB=0.0,0.0,0.16,0.16,0.01,2.43, POINTS=50, HIDE_COORDINATES=.TRUE., QUANTITY='MASS FLUX', SPEC_ID='MMA', IOR=-2, TIME_HISTORY=T /

&DEVC ID='T_mean_50cm_060s', XB=0.0,0.0,-0.135,0.155,0.50,0.50, POINTS=15, QUANTITY='TEMPERATURE', TEMPORAL_STATISTIC='RUNNING AVERAGE', STATISTICS_START= 55, STATISTICS_END= 65, Y_ID='x'  /
&DEVC ID='T_mean_50cm_120s', XB=0.0,0.0,-0.135,0.155,0.50,0.50, POINTS=15, QUANTITY='TEMPERATURE', TEMPORAL_STATISTIC='RUNNING AVERAGE', STATISTICS_START=115, STATISTICS_END=125, HIDE_COORDINATES=T /
&DEVC ID='T_mean_50cm_180s', XB=0.0,0.0,-0.135,0.155,0.50,0.50, POINTS=15, QUANTITY='TEMPERATURE', TEMPORAL_STATISTIC='RUNNING AVERAGE', STATISTICS_START=175, STATISTICS_END=185, HIDE_COORDINATES=T /
&DEVC ID='T_mean_50cm_240s', XB=0.0,0.0,-0.135,0.155,0.50,0.50, POINTS=15, QUANTITY='TEMPERATURE', TEMPORAL_STATISTIC='RUNNING AVERAGE', STATISTICS_START=235, STATISTICS_END=245, HIDE_COORDINATES=T /
&DEVC ID='T_mean_50cm_300s', XB=0.0,0.0,-0.135,0.155,0.50,0.50, POINTS=15, QUANTITY='TEMPERATURE', TEMPORAL_STATISTIC='RUNNING AVERAGE', STATISTICS_START=295, STATISTICS_END=305, HIDE_COORDINATES=T /
&DEVC ID='T_rms_50cm_060s',  XB=0.0,0.0,-0.135,0.155,0.50,0.50, POINTS=15, QUANTITY='TEMPERATURE', TEMPORAL_STATISTIC='RMS'            , STATISTICS_START= 55, STATISTICS_END= 65, HIDE_COORDINATES=T /
&DEVC ID='T_rms_50cm_120s',  XB=0.0,0.0,-0.135,0.155,0.50,0.50, POINTS=15, QUANTITY='TEMPERATURE', TEMPORAL_STATISTIC='RMS'            , STATISTICS_START=115, STATISTICS_END=125, HIDE_COORDINATES=T /
&DEVC ID='T_rms_50cm_180s',  XB=0.0,0.0,-0.135,0.155,0.50,0.50, POINTS=15, QUANTITY='TEMPERATURE', TEMPORAL_STATISTIC='RMS'            , STATISTICS_START=175, STATISTICS_END=185, HIDE_COORDINATES=T /
&DEVC ID='T_rms_50cm_240s',  XB=0.0,0.0,-0.135,0.155,0.50,0.50, POINTS=15, QUANTITY='TEMPERATURE', TEMPORAL_STATISTIC='RMS'            , STATISTICS_START=235, STATISTICS_END=245, HIDE_COORDINATES=T /
&DEVC ID='T_rms_50cm_300s',  XB=0.0,0.0,-0.135,0.155,0.50,0.50, POINTS=15, QUANTITY='TEMPERATURE', TEMPORAL_STATISTIC='RMS'            , STATISTICS_START=295, STATISTICS_END=305, HIDE_COORDINATES=T /

&DEVC ID='T_mean_140cm_060s', XB=0.0,0.0,-0.135,0.155,1.40,1.40, POINTS=15, QUANTITY='TEMPERATURE', TEMPORAL_STATISTIC='RUNNING AVERAGE', STATISTICS_START= 55, STATISTICS_END= 65, HIDE_COORDINATES=T /
&DEVC ID='T_mean_140cm_120s', XB=0.0,0.0,-0.135,0.155,1.40,1.40, POINTS=15, QUANTITY='TEMPERATURE', TEMPORAL_STATISTIC='RUNNING AVERAGE', STATISTICS_START=115, STATISTICS_END=125, HIDE_COORDINATES=T /
&DEVC ID='T_mean_140cm_180s', XB=0.0,0.0,-0.135,0.155,1.40,1.40, POINTS=15, QUANTITY='TEMPERATURE', TEMPORAL_STATISTIC='RUNNING AVERAGE', STATISTICS_START=175, STATISTICS_END=185, HIDE_COORDINATES=T /
&DEVC ID='T_mean_140cm_240s', XB=0.0,0.0,-0.135,0.155,1.40,1.40, POINTS=15, QUANTITY='TEMPERATURE', TEMPORAL_STATISTIC='RUNNING AVERAGE', STATISTICS_START=235, STATISTICS_END=245, HIDE_COORDINATES=T /
&DEVC ID='T_mean_140cm_300s', XB=0.0,0.0,-0.135,0.155,1.40,1.40, POINTS=15, QUANTITY='TEMPERATURE', TEMPORAL_STATISTIC='RUNNING AVERAGE', STATISTICS_START=295, STATISTICS_END=305, HIDE_COORDINATES=T /
&DEVC ID='T_rms_140cm_060s',  XB=0.0,0.0,-0.135,0.155,1.40,1.40, POINTS=15, QUANTITY='TEMPERATURE', TEMPORAL_STATISTIC='RMS'            , STATISTICS_START= 55, STATISTICS_END= 65, HIDE_COORDINATES=T /
&DEVC ID='T_rms_140cm_120s',  XB=0.0,0.0,-0.135,0.155,1.40,1.40, POINTS=15, QUANTITY='TEMPERATURE', TEMPORAL_STATISTIC='RMS'            , STATISTICS_START=115, STATISTICS_END=125, HIDE_COORDINATES=T /
&DEVC ID='T_rms_140cm_180s',  XB=0.0,0.0,-0.135,0.155,1.40,1.40, POINTS=15, QUANTITY='TEMPERATURE', TEMPORAL_STATISTIC='RMS'            , STATISTICS_START=175, STATISTICS_END=185, HIDE_COORDINATES=T /
&DEVC ID='T_rms_140cm_240s',  XB=0.0,0.0,-0.135,0.155,1.40,1.40, POINTS=15, QUANTITY='TEMPERATURE', TEMPORAL_STATISTIC='RMS'            , STATISTICS_START=235, STATISTICS_END=245, HIDE_COORDINATES=T /
&DEVC ID='T_rms_140cm_300s',  XB=0.0,0.0,-0.135,0.155,1.40,1.40, POINTS=15, QUANTITY='TEMPERATURE', TEMPORAL_STATISTIC='RMS'            , STATISTICS_START=295, STATISTICS_END=305, HIDE_COORDINATES=T /

&DEVC ID='T_mean_220cm_060s', XB=0.0,0.0,-0.135,0.155,2.20,2.20, POINTS=15, QUANTITY='TEMPERATURE', TEMPORAL_STATISTIC='RUNNING AVERAGE', STATISTICS_START= 55, STATISTICS_END= 65, HIDE_COORDINATES=T /
&DEVC ID='T_mean_220cm_120s', XB=0.0,0.0,-0.135,0.155,2.20,2.20, POINTS=15, QUANTITY='TEMPERATURE', TEMPORAL_STATISTIC='RUNNING AVERAGE', STATISTICS_START=115, STATISTICS_END=125, HIDE_COORDINATES=T /
&DEVC ID='T_mean_220cm_180s', XB=0.0,0.0,-0.135,0.155,2.20,2.20, POINTS=15, QUANTITY='TEMPERATURE', TEMPORAL_STATISTIC='RUNNING AVERAGE', STATISTICS_START=175, STATISTICS_END=185, HIDE_COORDINATES=T /
&DEVC ID='T_mean_220cm_240s', XB=0.0,0.0,-0.135,0.155,2.20,2.20, POINTS=15, QUANTITY='TEMPERATURE', TEMPORAL_STATISTIC='RUNNING AVERAGE', STATISTICS_START=235, STATISTICS_END=245, HIDE_COORDINATES=T /
&DEVC ID='T_mean_220cm_300s', XB=0.0,0.0,-0.135,0.155,2.20,2.20, POINTS=15, QUANTITY='TEMPERATURE', TEMPORAL_STATISTIC='RUNNING AVERAGE', STATISTICS_START=295, STATISTICS_END=305, HIDE_COORDINATES=T /
&DEVC ID='T_rms_220cm_060s',  XB=0.0,0.0,-0.135,0.155,2.20,2.20, POINTS=15, QUANTITY='TEMPERATURE', TEMPORAL_STATISTIC='RMS'            , STATISTICS_START= 55, STATISTICS_END= 65, HIDE_COORDINATES=T /
&DEVC ID='T_rms_220cm_120s',  XB=0.0,0.0,-0.135,0.155,2.20,2.20, POINTS=15, QUANTITY='TEMPERATURE', TEMPORAL_STATISTIC='RMS'            , STATISTICS_START=115, STATISTICS_END=125, HIDE_COORDINATES=T /
&DEVC ID='T_rms_220cm_180s',  XB=0.0,0.0,-0.135,0.155,2.20,2.20, POINTS=15, QUANTITY='TEMPERATURE', TEMPORAL_STATISTIC='RMS'            , STATISTICS_START=175, STATISTICS_END=185, HIDE_COORDINATES=T /
&DEVC ID='T_rms_220cm_240s',  XB=0.0,0.0,-0.135,0.155,2.20,2.20, POINTS=15, QUANTITY='TEMPERATURE', TEMPORAL_STATISTIC='RMS'            , STATISTICS_START=235, STATISTICS_END=245, HIDE_COORDINATES=T /
&DEVC ID='T_rms_220cm_300s',  XB=0.0,0.0,-0.135,0.155,2.20,2.20, POINTS=15, QUANTITY='TEMPERATURE', TEMPORAL_STATISTIC='RMS'            , STATISTICS_START=295, STATISTICS_END=305, HIDE_COORDINATES=T /

&DEVC ID='w_mean_50cm_060s', XB=0.0,0.0,-0.135,0.155,0.50,0.50, POINTS=15, QUANTITY='W-VELOCITY', TEMPORAL_STATISTIC='RUNNING AVERAGE', STATISTICS_START= 55, STATISTICS_END= 65, HIDE_COORDINATES=T /
&DEVC ID='w_mean_50cm_120s', XB=0.0,0.0,-0.135,0.155,0.50,0.50, POINTS=15, QUANTITY='W-VELOCITY', TEMPORAL_STATISTIC='RUNNING AVERAGE', STATISTICS_START=115, STATISTICS_END=125, HIDE_COORDINATES=T /
&DEVC ID='w_mean_50cm_180s', XB=0.0,0.0,-0.135,0.155,0.50,0.50, POINTS=15, QUANTITY='W-VELOCITY', TEMPORAL_STATISTIC='RUNNING AVERAGE', STATISTICS_START=175, STATISTICS_END=185, HIDE_COORDINATES=T /
&DEVC ID='w_mean_50cm_240s', XB=0.0,0.0,-0.135,0.155,0.50,0.50, POINTS=15, QUANTITY='W-VELOCITY', TEMPORAL_STATISTIC='RUNNING AVERAGE', STATISTICS_START=235, STATISTICS_END=245, HIDE_COORDINATES=T /
&DEVC ID='w_mean_50cm_300s', XB=0.0,0.0,-0.135,0.155,0.50,0.50, POINTS=15, QUANTITY='W-VELOCITY', TEMPORAL_STATISTIC='RUNNING AVERAGE', STATISTICS_START=295, STATISTICS_END=305, HIDE_COORDINATES=T /
&DEVC ID='w_rms_50cm_060s',  XB=0.0,0.0,-0.135,0.155,0.50,0.50, POINTS=15, QUANTITY='W-VELOCITY', TEMPORAL_STATISTIC='RMS'            , STATISTICS_START= 55, STATISTICS_END= 65, HIDE_COORDINATES=T /
&DEVC ID='w_rms_50cm_120s',  XB=0.0,0.0,-0.135,0.155,0.50,0.50, POINTS=15, QUANTITY='W-VELOCITY', TEMPORAL_STATISTIC='RMS'            , STATISTICS_START=115, STATISTICS_END=125, HIDE_COORDINATES=T /
&DEVC ID='w_rms_50cm_180s',  XB=0.0,0.0,-0.135,0.155,0.50,0.50, POINTS=15, QUANTITY='W-VELOCITY', TEMPORAL_STATISTIC='RMS'            , STATISTICS_START=175, STATISTICS_END=185, HIDE_COORDINATES=T /
&DEVC ID='w_rms_50cm_240s',  XB=0.0,0.0,-0.135,0.155,0.50,0.50, POINTS=15, QUANTITY='W-VELOCITY', TEMPORAL_STATISTIC='RMS'            , STATISTICS_START=235, STATISTICS_END=245, HIDE_COORDINATES=T /
&DEVC ID='w_rms_50cm_300s',  XB=0.0,0.0,-0.135,0.155,0.50,0.50, POINTS=15, QUANTITY='W-VELOCITY', TEMPORAL_STATISTIC='RMS'            , STATISTICS_START=295, STATISTICS_END=305, HIDE_COORDINATES=T /

&DEVC ID='w_mean_140cm_060s', XB=0.0,0.0,-0.135,0.155,1.40,1.40, POINTS=15, QUANTITY='W-VELOCITY', TEMPORAL_STATISTIC='RUNNING AVERAGE', STATISTICS_START= 55, STATISTICS_END= 65, HIDE_COORDINATES=T /
&DEVC ID='w_mean_140cm_120s', XB=0.0,0.0,-0.135,0.155,1.40,1.40, POINTS=15, QUANTITY='W-VELOCITY', TEMPORAL_STATISTIC='RUNNING AVERAGE', STATISTICS_START=115, STATISTICS_END=125, HIDE_COORDINATES=T /
&DEVC ID='w_mean_140cm_180s', XB=0.0,0.0,-0.135,0.155,1.40,1.40, POINTS=15, QUANTITY='W-VELOCITY', TEMPORAL_STATISTIC='RUNNING AVERAGE', STATISTICS_START=175, STATISTICS_END=185, HIDE_COORDINATES=T /
&DEVC ID='w_mean_140cm_240s', XB=0.0,0.0,-0.135,0.155,1.40,1.40, POINTS=15, QUANTITY='W-VELOCITY', TEMPORAL_STATISTIC='RUNNING AVERAGE', STATISTICS_START=235, STATISTICS_END=245, HIDE_COORDINATES=T /
&DEVC ID='w_mean_140cm_300s', XB=0.0,0.0,-0.135,0.155,1.40,1.40, POINTS=15, QUANTITY='W-VELOCITY', TEMPORAL_STATISTIC='RUNNING AVERAGE', STATISTICS_START=295, STATISTICS_END=305, HIDE_COORDINATES=T /
&DEVC ID='w_rms_140cm_060s',  XB=0.0,0.0,-0.135,0.155,1.40,1.40, POINTS=15, QUANTITY='W-VELOCITY', TEMPORAL_STATISTIC='RMS'            , STATISTICS_START= 55, STATISTICS_END= 65, HIDE_COORDINATES=T /
&DEVC ID='w_rms_140cm_120s',  XB=0.0,0.0,-0.135,0.155,1.40,1.40, POINTS=15, QUANTITY='W-VELOCITY', TEMPORAL_STATISTIC='RMS'            , STATISTICS_START=115, STATISTICS_END=125, HIDE_COORDINATES=T /
&DEVC ID='w_rms_140cm_180s',  XB=0.0,0.0,-0.135,0.155,1.40,1.40, POINTS=15, QUANTITY='W-VELOCITY', TEMPORAL_STATISTIC='RMS'            , STATISTICS_START=175, STATISTICS_END=185, HIDE_COORDINATES=T /
&DEVC ID='w_rms_140cm_240s',  XB=0.0,0.0,-0.135,0.155,1.40,1.40, POINTS=15, QUANTITY='W-VELOCITY', TEMPORAL_STATISTIC='RMS'            , STATISTICS_START=235, STATISTICS_END=245, HIDE_COORDINATES=T /
&DEVC ID='w_rms_140cm_300s',  XB=0.0,0.0,-0.135,0.155,1.40,1.40, POINTS=15, QUANTITY='W-VELOCITY', TEMPORAL_STATISTIC='RMS'            , STATISTICS_START=295, STATISTICS_END=305, HIDE_COORDINATES=T /

&DEVC ID='w_mean_220cm_060s', XB=0.0,0.0,-0.135,0.155,2.20,2.20, POINTS=15, QUANTITY='W-VELOCITY', TEMPORAL_STATISTIC='RUNNING AVERAGE', STATISTICS_START= 55, STATISTICS_END= 65, HIDE_COORDINATES=T /
&DEVC ID='w_mean_220cm_120s', XB=0.0,0.0,-0.135,0.155,2.20,2.20, POINTS=15, QUANTITY='W-VELOCITY', TEMPORAL_STATISTIC='RUNNING AVERAGE', STATISTICS_START=115, STATISTICS_END=125, HIDE_COORDINATES=T /
&DEVC ID='w_mean_220cm_180s', XB=0.0,0.0,-0.135,0.155,2.20,2.20, POINTS=15, QUANTITY='W-VELOCITY', TEMPORAL_STATISTIC='RUNNING AVERAGE', STATISTICS_START=175, STATISTICS_END=185, HIDE_COORDINATES=T /
&DEVC ID='w_mean_220cm_240s', XB=0.0,0.0,-0.135,0.155,2.20,2.20, POINTS=15, QUANTITY='W-VELOCITY', TEMPORAL_STATISTIC='RUNNING AVERAGE', STATISTICS_START=235, STATISTICS_END=245, HIDE_COORDINATES=T /
&DEVC ID='w_mean_220cm_300s', XB=0.0,0.0,-0.135,0.155,2.20,2.20, POINTS=15, QUANTITY='W-VELOCITY', TEMPORAL_STATISTIC='RUNNING AVERAGE', STATISTICS_START=295, STATISTICS_END=305, HIDE_COORDINATES=T /
&DEVC ID='w_rms_220cm_060s',  XB=0.0,0.0,-0.135,0.155,2.20,2.20, POINTS=15, QUANTITY='W-VELOCITY', TEMPORAL_STATISTIC='RMS'            , STATISTICS_START= 55, STATISTICS_END= 65, HIDE_COORDINATES=T /
&DEVC ID='w_rms_220cm_120s',  XB=0.0,0.0,-0.135,0.155,2.20,2.20, POINTS=15, QUANTITY='W-VELOCITY', TEMPORAL_STATISTIC='RMS'            , STATISTICS_START=115, STATISTICS_END=125, HIDE_COORDINATES=T /
&DEVC ID='w_rms_220cm_180s',  XB=0.0,0.0,-0.135,0.155,2.20,2.20, POINTS=15, QUANTITY='W-VELOCITY', TEMPORAL_STATISTIC='RMS'            , STATISTICS_START=175, STATISTICS_END=185, HIDE_COORDINATES=T /
&DEVC ID='w_rms_220cm_240s',  XB=0.0,0.0,-0.135,0.155,2.20,2.20, POINTS=15, QUANTITY='W-VELOCITY', TEMPORAL_STATISTIC='RMS'            , STATISTICS_START=235, STATISTICS_END=245, HIDE_COORDINATES=T /
&DEVC ID='w_rms_220cm_300s',  XB=0.0,0.0,-0.135,0.155,2.20,2.20, POINTS=15, QUANTITY='W-VELOCITY', TEMPORAL_STATISTIC='RMS'            , STATISTICS_START=295, STATISTICS_END=305, HIDE_COORDINATES=T /

&BNDF QUANTITY='GAUGE HEAT FLUX', CELL_CENTERED=T  /
&BNDF QUANTITY='BURNING RATE', CELL_CENTERED=T  /
&BNDF QUANTITY='WALL TEMPERATURE', CELL_CENTERED=T  /
&BNDF QUANTITY='RADIATIVE HEAT FLUX', CELL_CENTERED=T  /
&BNDF QUANTITY='CONVECTIVE HEAT FLUX', CELL_CENTERED=T  /
&BNDF QUANTITY='HEAT TRANSFER COEFFICIENT', CELL_CENTERED=T  /

&DUMP DT_BNDF=1., DT_DEVC=2., DT_HRR=2., SIG_FIGS=4, SIG_FIGS_EXP=2 /

&SLCF PBX=0.00 QUANTITY='TEMPERATURE', VECTOR=.TRUE. /
&SLCF PBY=0.00 QUANTITY='VELOCITY', VECTOR=.TRUE. /

&ISOF QUANTITY='HRRPUV', VALUE=200 /
 
&TAIL /
