&HEAD CHID='crib_drag', TITLE='Single wood crib' /

&MESH XB=-0.58, 0.00,-0.58, 0.00,0.00,0.56, IJK=29,29,28, MULT_ID='mesh' /
&MULT ID='mesh', DX=0.68, DZ=0.56, I_UPPER=1, K_LOWER=-2, K_UPPER=1 /

&MESH XB= 0.78, 1.36,-0.58, 0.00,0.00,0.56, IJK=15,15,14, MULT_ID='mesh3' /
&MULT ID='mesh3', DZ=0.56, K_LOWER=-2, K_UPPER=1 /

&MESH XB= 1.46, 2.04,-0.58, 0.00,0.00,0.56, IJK=8,8,7, MULT_ID='mesh4' /
&MULT ID='mesh4', DZ=0.56, K_LOWER=-2, K_UPPER=1 /

&TIME T_END=20. /    

&SPEC ID='WATER VAPOR' /

&SURF ID='BLOW', VEL=-1.0, COLOR='INVISIBLE' /

&VENT MB='ZMIN', SURF_ID='BLOW' /
&VENT MB='ZMAX', SURF_ID='OPEN' /

&OBST XB=-0.58,-0.54,-0.58, 0.00,0.08,0.12, SURF_ID='SOLID PINE', MULT_ID='m1' /
&MULT ID='m1', DX=0.06, DZ=0.08, I_UPPER=9, K_UPPER=4 /
&OBST XB=-0.58, 0.00,-0.58,-0.54,0.12,0.16, SURF_ID='SOLID PINE', MULT_ID='m3' /
&MULT ID='m3', DY=0.06, DZ=0.08, J_UPPER=9, K_UPPER=4 /

&INIT PART_ID='PINE CRIB PARTICLE', XB= 0.10,0.68,-0.58,0.0,0.08,0.48, N_PARTICLES_PER_CELL=1, CELL_CENTERED=T, DRY=T, MASS_PER_VOLUME=319 /
&INIT PART_ID='PINE CRIB PARTICLE', XB= 0.78,1.36,-0.58,0.0,0.08,0.48, N_PARTICLES_PER_CELL=1, CELL_CENTERED=T, DRY=T, MASS_PER_VOLUME=319 /
&INIT PART_ID='PINE CRIB PARTICLE', XB= 1.46,2.04,-0.58,0.0,0.08,0.48, N_PARTICLES_PER_CELL=1, CELL_CENTERED=T, DRY=T, MASS_PER_VOLUME=319 /

&DEVC ID='p1', XYZ=-0.30,-0.30,-0.9, QUANTITY='PRESSURE' /
&DEVC ID='p2', XYZ= 0.40,-0.30,-0.9, QUANTITY='PRESSURE' /
&DEVC ID='p3', XYZ= 1.10,-0.30,-0.9, QUANTITY='PRESSURE' /
&DEVC ID='p4', XYZ= 1.70,-0.30,-0.9, QUANTITY='PRESSURE' /

&SLCF PBY=-0.30, QUANTITY='PRESSURE', CELL_CENTERED=T, VECTOR=T /

&SURF ID='SOLID PINE', 
      MATL_ID = 'PINE WOOD'
      MOISTURE_CONTENT = 0.05
      THICKNESS=0.04 /

&SURF ID='PINE CRIB', 
      MATL_ID = 'PINE WOOD'
      MOISTURE_CONTENT = 0.05
      SURFACE_VOLUME_RATIO = 69.
      GEOMETRY = 'CYLINDRICAL'
      LENGTH = 0.04 /

&MATL ID                 = 'PINE WOOD'
      DENSITY            = 450.
      CONDUCTIVITY       = 0.1
      SPECIFIC_HEAT      = 1.0 /

&PART ID             = 'PINE CRIB PARTICLE'
      DRAG_COEFFICIENT = 40.
      COLOR          = 'BROWN'
      SURF_ID        = 'PINE CRIB'
      QUANTITIES     = 'PARTICLE TEMPERATURE','PARTICLE MASS'
      STATIC         = .TRUE. /

&DUMP DT_DEVC=0.10, DT_HRR=10 /

&TAIL /
