&HEAD CHID='cone_demo_2'/

&TIME T_END=600.,DT=0.1/

&DUMP DT_DEVC=0.5/

&MESH XB=0.0,0.4,0.0,0.1,0.0,0.4,IJK=4,1,4/

&VENT MB='ZMAX',SURF_ID='OPEN'/

&MISC SOLID_PHASE_ONLY=T,TMPA=0/

&REAC FUEL='PROPANE'/

&SURF ID='SAMPLE',COLOR='BLUE',IGNITION_TEMPERATURE=0,EXTERNAL_FLUX=1,HEAT_TRANSFER_COEFFICIENT=0,HRRPUA=1,RAMP_Q='CONE',REFERENCE_HEAT_FLUX=50.,MATL_ID='SAMPLE',THICKNESS=0.01,RAMP_EF='EF',REFERENCE_HEAT_FLUX_TIME_INTERVAL=0.0001,INERT_Q_REF=T/

&MATL ID='SAMPLE',CONDUCTIVITY=100,DENSITY=1000,SPECIFIC_HEAT=1,EMISSIVITY=1/

&VENT XB=0.1,0.2,0.0,0.1,0.0,0.0,SURF_ID='SAMPLE'/
&DEVC XYZ=0.15,0.05,0.00,QUANTITY='HRRPUA',IOR=3,ID='HRRPUA'/

&RAMP ID='EF',T=0,F=10/
&RAMP ID='EF',T=18,F=100/
&RAMP ID='EF',T=36,F=10/
&RAMP ID='EF',T=54,F=100/
&RAMP ID='EF',T=72,F=10/
&RAMP ID='EF',T=90,F=100/
&RAMP ID='EF',T=108,F=10/
&RAMP ID='EF',T=126,F=100/
&RAMP ID='EF',T=144,F=10/
&RAMP ID='EF',T=162,F=100/
&RAMP ID='EF',T=180,F=10/
&RAMP ID='EF',T=198,F=100/
&RAMP ID='EF',T=216,F=10/
&RAMP ID='EF',T=234,F=100/
&RAMP ID='EF',T=252,F=10/
&RAMP ID='EF',T=270,F=100/
&RAMP ID='EF',T=288,F=10/
&RAMP ID='EF',T=306,F=100/
&RAMP ID='EF',T=324,F=10/
&RAMP ID='EF',T=342,F=100/
! ... 10 like lines cut

&RAMP ID='CONE',T=0,F=0/
&RAMP ID='CONE',T=1,F=2.03437906875814/
&RAMP ID='CONE',T=2,F=2.12156674313349/
&RAMP ID='CONE',T=3,F=0/
&RAMP ID='CONE',T=4,F=0/
&RAMP ID='CONE',T=5,F=0/
&RAMP ID='CONE',T=6,F=2.55750511501023/
&RAMP ID='CONE',T=7,F=3.14844379688759/
&RAMP ID='CONE',T=8,F=0/
&RAMP ID='CONE',T=9,F=1.54031558063116/
&RAMP ID='CONE',T=10,F=0.775970301940604/
&RAMP ID='CONE',T=11,F=1.02687705375411/
&RAMP ID='CONE',T=12,F=2.7996930993862/
&RAMP ID='CONE',T=13,F=0/
&RAMP ID='CONE',T=14,F=1.82125364250729/
&RAMP ID='CONE',T=15,F=1.65656581313163/
&RAMP ID='CONE',T=16,F=0.861220472440945/
&RAMP ID='CONE',T=17,F=1.86000372000744/
&RAMP ID='CONE',T=18,F=0.0249937999876/
&RAMP ID='CONE',T=19,F=0/
! ... 491 like lines cut
