&HEAD CHID='spyro_cone_demo_3'/

&MESH XB=0.0,0.3,0.0,0.1,0.0,0.3,IJK=3,1,3/

&TIME T_END=500,DT=0.25/

&DUMP FLUSH_FILE_BUFFERS=F, NFRAMES=500/

&MISC SOLID_PHASE_ONLY=T,TMPA=-200,NOISE=F,HUMIDITY=0,Y_CO2_INFTY=0/

&REAC ID='PROPANE'/

&VENT XB=0.1,0.2,0.0,0.1,0.0,0.0,IOR=3,COLOR='GRAY 70',SURF_ID='ALL-50 50 7p3'/

&DEVC XYZ=0.15,0.05,0.00,IOR=3,QUANTITY='HRRPUA',ID='HRRPUA'/


&MATL ID='MAT', DENSITY=10000, CONDUCTIVITY=100,SPECIFIC_HEAT=10000,EMISSIVITY=1/

&SURF ID='ALL-50 50 7p3',
      COLOR='GRAY 20',
      MATL_ID(1,1)='MAT',
      THICKNESS(1:2)=0.0073,
      IGNITION_TEMPERATURE=-273.15,
      HRRPUA=1,INERT_Q_REF=T,
      SPEC_ID='PROPANE',
      REFERENCE_HEAT_FLUX=25,65,25,75,
      REFERENCE_HEAT_FLUX_TIME_INTERVAL=0.5,
      REFERENCE_THICKNESS=0.0062,0.0062,0.0084,0.0084,
      HEAT_OF_VAPORIZATION=822,
      RAMP_Q='25 DBI','65 DBI','25 FSRI','75 FSRI',
      HEAT_TRANSFER_COEFFICIENT=0,
      EXTERNAL_FLUX=50/

&RAMP ID='25 DBI',T=0,F=0.000/
&RAMP ID='25 DBI',T=1,F=3.236/
&RAMP ID='25 DBI',T=2,F=13.798/
&RAMP ID='25 DBI',T=3,F=31.327/
&RAMP ID='25 DBI',T=4,F=39.949/
&RAMP ID='25 DBI',T=5,F=53.951/
&RAMP ID='25 DBI',T=6,F=82.017/
&RAMP ID='25 DBI',T=7,F=102.334/
&RAMP ID='25 DBI',T=8,F=121.232/
&RAMP ID='25 DBI',T=9,F=151.479/
&RAMP ID='25 DBI',T=10,F=179.056/
&RAMP ID='25 DBI',T=11,F=192.180/
&RAMP ID='25 DBI',T=12,F=215.275/
&RAMP ID='25 DBI',T=13,F=247.645/
&RAMP ID='25 DBI',T=14,F=259.330/
&RAMP ID='25 DBI',T=15,F=272.280/
&RAMP ID='25 DBI',T=16,F=293.848/
&RAMP ID='25 DBI',T=17,F=301.984/
&RAMP ID='25 DBI',T=18,F=311.411/
&RAMP ID='25 DBI',T=19,F=326.581/
! ... 467 like lines cut

&RAMP ID='65 DBI',T=0,F=0.000/
&RAMP ID='65 DBI',T=1,F=11.717/
&RAMP ID='65 DBI',T=2,F=60.456/
&RAMP ID='65 DBI',T=3,F=83.276/
&RAMP ID='65 DBI',T=4,F=148.221/
&RAMP ID='65 DBI',T=5,F=266.118/
&RAMP ID='65 DBI',T=6,F=305.758/
&RAMP ID='65 DBI',T=7,F=369.078/
&RAMP ID='65 DBI',T=8,F=462.582/
&RAMP ID='65 DBI',T=9,F=475.601/
&RAMP ID='65 DBI',T=10,F=503.855/
&RAMP ID='65 DBI',T=11,F=556.892/
&RAMP ID='65 DBI',T=12,F=572.155/
&RAMP ID='65 DBI',T=13,F=598.931/
&RAMP ID='65 DBI',T=14,F=625.635/
&RAMP ID='65 DBI',T=15,F=658.814/
&RAMP ID='65 DBI',T=16,F=685.534/
&RAMP ID='65 DBI',T=17,F=697.853/
&RAMP ID='65 DBI',T=18,F=709.440/
&RAMP ID='65 DBI',T=19,F=707.222/
! ... 280 like lines cut

&RAMP ID='25 FSRI',T=0,F=0.00/
&RAMP ID='25 FSRI',T=1,F=2.54/
&RAMP ID='25 FSRI',T=2,F=9.56/
&RAMP ID='25 FSRI',T=3,F=20.62/
&RAMP ID='25 FSRI',T=4,F=34.56/
&RAMP ID='25 FSRI',T=5,F=52.01/
&RAMP ID='25 FSRI',T=6,F=72.79/
&RAMP ID='25 FSRI',T=7,F=96.76/
&RAMP ID='25 FSRI',T=8,F=121.52/
&RAMP ID='25 FSRI',T=9,F=147.63/
&RAMP ID='25 FSRI',T=10,F=174.80/
&RAMP ID='25 FSRI',T=11,F=200.80/
&RAMP ID='25 FSRI',T=12,F=227.39/
&RAMP ID='25 FSRI',T=13,F=250.90/
&RAMP ID='25 FSRI',T=14,F=273.25/
&RAMP ID='25 FSRI',T=15,F=294.47/
&RAMP ID='25 FSRI',T=16,F=312.99/
&RAMP ID='25 FSRI',T=17,F=328.41/
&RAMP ID='25 FSRI',T=18,F=341.41/
&RAMP ID='25 FSRI',T=19,F=352.80/
! ... 626 like lines cut

&RAMP ID='75 FSRI',T=0,F=0.00/
&RAMP ID='75 FSRI',T=1,F=3.17/
&RAMP ID='75 FSRI',T=2,F=18.15/
&RAMP ID='75 FSRI',T=3,F=48.90/
&RAMP ID='75 FSRI',T=4,F=92.23/
&RAMP ID='75 FSRI',T=5,F=137.80/
&RAMP ID='75 FSRI',T=6,F=193.44/
&RAMP ID='75 FSRI',T=7,F=257.51/
&RAMP ID='75 FSRI',T=8,F=319.86/
&RAMP ID='75 FSRI',T=9,F=386.37/
&RAMP ID='75 FSRI',T=10,F=452.39/
&RAMP ID='75 FSRI',T=11,F=514.09/
&RAMP ID='75 FSRI',T=12,F=565.03/
&RAMP ID='75 FSRI',T=13,F=630.52/
&RAMP ID='75 FSRI',T=14,F=686.33/
&RAMP ID='75 FSRI',T=15,F=725.22/
&RAMP ID='75 FSRI',T=16,F=756.38/
&RAMP ID='75 FSRI',T=17,F=780.39/
&RAMP ID='75 FSRI',T=18,F=814.03/
&RAMP ID='75 FSRI',T=19,F=825.13/
! ... 288 like lines cut
