&HEAD CHID='spyro_cone_demo'/

&TIME T_END=1500.,DT=0.1/

&DUMP FLUSH_FILE_BUFFERS=F, DT_DEVC=1./

&MESH XB=0.0,0.4,0.0,0.1,0.0,0.4,IJK=4,1,4/

&VENT MB='ZMAX',SURF_ID='OPEN'/

&MISC SOLID_PHASE_ONLY=T,TMPA=0/

&REAC FUEL='PROPANE'/

&SURF ID='SAMPLE25',COLOR='BLUE',IGNITION_TEMPERATURE=0,EXTERNAL_FLUX=25,HEAT_TRANSFER_COEFFICIENT=0,HRRPUA=1,RAMP_Q='CONE 50',REFERENCE_HEAT_FLUX=50,MATL_ID='SAMPLE',THICKNESS=0.01/
&SURF ID='SAMPLE50',COLOR='BLUE',IGNITION_TEMPERATURE=0,EXTERNAL_FLUX=50,HEAT_TRANSFER_COEFFICIENT=0,HRRPUA=1,RAMP_Q='CONE 50',REFERENCE_HEAT_FLUX=50,MATL_ID='SAMPLE',THICKNESS=0.01/
&SURF ID='SAMPLE75',COLOR='BLUE',IGNITION_TEMPERATURE=0,EXTERNAL_FLUX=75,HEAT_TRANSFER_COEFFICIENT=0,HRRPUA=1,RAMP_Q='CONE 50',REFERENCE_HEAT_FLUX=50,MATL_ID='SAMPLE',THICKNESS=0.01/
&SURF ID='SAMPLE50B',COLOR='BLUE',IGNITION_TEMPERATURE=0,EXTERNAL_FLUX=50,HEAT_TRANSFER_COEFFICIENT=0,HRRPUA=1,RAMP_Q='CONE 25','CONE 75',REFERENCE_HEAT_FLUX=25,75,MATL_ID='SAMPLE',THICKNESS=0.01/

&MATL ID='SAMPLE',CONDUCTIVITY=100,DENSITY=1000,SPECIFIC_HEAT=1,EMISSIVITY=1/

&VENT XB=0.0,0.1,0.0,0.1,0.0,0.0,SURF_ID='SAMPLE25',IOR=3/
&VENT XB=0.1,0.2,0.0,0.1,0.0,0.0,SURF_ID='SAMPLE50',IOR=3/
&VENT XB=0.2,0.3,0.0,0.1,0.0,0.0,SURF_ID='SAMPLE75',IOR=3/
&VENT XB=0.3,0.4,0.0,0.1,0.0,0.0,SURF_ID='SAMPLE50B',IOR=3/
&DEVC XYZ=0.05,0.05,0.00,QUANTITY='HRRPUA',IOR=3,ID='Q50 to Q25',IOR=3/
&DEVC XYZ=0.15,0.05,0.00,QUANTITY='HRRPUA',IOR=3,ID='Q50 to Q50',IOR=3/
&DEVC XYZ=0.25,0.05,0.00,QUANTITY='HRRPUA',IOR=3,ID='Q50 to Q75',IOR=3/
&DEVC XYZ=0.35,0.05,0.00,QUANTITY='HRRPUA',IOR=3,ID='Q25 Q75 to Q50',IOR=3/

&RAMP ID='CONE 25',T=0.0,F=0.000/
&RAMP ID='CONE 25',T=1.0,F=0.000/
&RAMP ID='CONE 25',T=2.0,F=0.000/
&RAMP ID='CONE 25',T=3.0,F=0.000/
&RAMP ID='CONE 25',T=4.0,F=0.000/
&RAMP ID='CONE 25',T=5.0,F=0.451/
&RAMP ID='CONE 25',T=6.0,F=0.000/
&RAMP ID='CONE 25',T=7.0,F=0.000/
&RAMP ID='CONE 25',T=8.0,F=0.000/
&RAMP ID='CONE 25',T=9.0,F=0.000/
&RAMP ID='CONE 25',T=10.0,F=0.000/
&RAMP ID='CONE 25',T=11.0,F=0.000/
&RAMP ID='CONE 25',T=12.0,F=0.000/
&RAMP ID='CONE 25',T=13.0,F=0.347/
&RAMP ID='CONE 25',T=14.0,F=0.000/
&RAMP ID='CONE 25',T=15.0,F=0.000/
&RAMP ID='CONE 25',T=16.0,F=0.000/
&RAMP ID='CONE 25',T=17.0,F=0.000/
&RAMP ID='CONE 25',T=18.0,F=1.683/
&RAMP ID='CONE 25',T=19.0,F=0.000/
! ... 1263 like lines cut

&RAMP ID='CONE 50',T=0.0,F=0.000/
&RAMP ID='CONE 50',T=1.0,F=2.034/
&RAMP ID='CONE 50',T=2.0,F=2.122/
&RAMP ID='CONE 50',T=3.0,F=0.000/
&RAMP ID='CONE 50',T=4.0,F=0.000/
&RAMP ID='CONE 50',T=5.0,F=0.000/
&RAMP ID='CONE 50',T=6.0,F=2.558/
&RAMP ID='CONE 50',T=7.0,F=3.148/
&RAMP ID='CONE 50',T=8.0,F=0.000/
&RAMP ID='CONE 50',T=9.0,F=1.540/
&RAMP ID='CONE 50',T=10.0,F=0.776/
&RAMP ID='CONE 50',T=11.0,F=1.027/
&RAMP ID='CONE 50',T=12.0,F=2.800/
&RAMP ID='CONE 50',T=13.0,F=0.000/
&RAMP ID='CONE 50',T=14.0,F=1.821/
&RAMP ID='CONE 50',T=15.0,F=1.657/
&RAMP ID='CONE 50',T=16.0,F=0.861/
&RAMP ID='CONE 50',T=17.0,F=1.860/
&RAMP ID='CONE 50',T=18.0,F=0.025/
&RAMP ID='CONE 50',T=19.0,F=0.000/
! ... 491 like lines cut

&RAMP ID='CONE 75',T=0.0,F=1.114/
&RAMP ID='CONE 75',T=1.0,F=0.120/
&RAMP ID='CONE 75',T=2.0,F=1.434/
&RAMP ID='CONE 75',T=3.0,F=0.000/
&RAMP ID='CONE 75',T=4.0,F=0.000/
&RAMP ID='CONE 75',T=5.0,F=0.000/
&RAMP ID='CONE 75',T=6.0,F=0.000/
&RAMP ID='CONE 75',T=7.0,F=3.584/
&RAMP ID='CONE 75',T=8.0,F=41.947/
&RAMP ID='CONE 75',T=9.0,F=65.681/
&RAMP ID='CONE 75',T=10.0,F=103.656/
&RAMP ID='CONE 75',T=11.0,F=157.907/
&RAMP ID='CONE 75',T=12.0,F=205.375/
&RAMP ID='CONE 75',T=13.0,F=255.751/
&RAMP ID='CONE 75',T=14.0,F=311.938/
&RAMP ID='CONE 75',T=15.0,F=332.282/
&RAMP ID='CONE 75',T=16.0,F=353.594/
&RAMP ID='CONE 75',T=17.0,F=352.626/
&RAMP ID='CONE 75',T=18.0,F=353.594/
&RAMP ID='CONE 75',T=19.0,F=343.907/
! ... 311 like lines cut

&TAIL /
