&HEAD CHID='Main_Control_Room_No_Purge_v6', TITLE='Cabinet fire in MCR affecting visibility of operators.'/

&MESH IJK=41,27,25, XB=0.0,8.2,0.0,5.4,0.0,5.2, MULT_ID='mesh' /
&MULT ID='mesh', DX=8.2, DY=5.4, I_UPPER=2, J_UPPER=2 /

&TIME T_END=3600.0 /

General construction

&MISC SUPPRESSION=.FALSE. /

&MATL ID             = 'CONCRETE'
      SPECIFIC_HEAT  = 0.750
      CONDUCTIVITY   = 1.6
      DENSITY        = 2400. /

&SURF ID             = 'CONCRETE WALL'
      DEFAULT        = .TRUE.
      COLOR          = 'GRAY 65'
      MATL_ID        = 'CONCRETE'
      THICKNESS      = 0.9 /

&SURF ID             = 'CONCRETE CEILING'
      COLOR          = 'GRAY 50'
      MATL_ID        = 'CONCRETE'
      THICKNESS      = 0.5 /

Fire

&SPEC ID = 'XPE/Neoprene', FORMULA = 'C3H4.5Cl0.5' /
&SPEC ID = 'OXYGEN',            LUMPED_COMPONENT_ONLY = .TRUE. /
&SPEC ID = 'NITROGEN',          LUMPED_COMPONENT_ONLY = .TRUE. /
&SPEC ID = 'HYDROGEN CHLORIDE', LUMPED_COMPONENT_ONLY = .TRUE. /
&SPEC ID = 'WATER VAPOR',       LUMPED_COMPONENT_ONLY = .TRUE. /
&SPEC ID = 'CARBON MONOXIDE',   LUMPED_COMPONENT_ONLY = .TRUE. /
&SPEC ID = 'CARBON DIOXIDE',    LUMPED_COMPONENT_ONLY = .TRUE. /
&SPEC ID = 'SOOT',              LUMPED_COMPONENT_ONLY = .TRUE., FORMULA='C1' /

&SPEC ID='AIR', BACKGROUND=.TRUE., SPEC_ID(1)='OXYGEN',   VOLUME_FRACTION(1)=0.21,
                                   SPEC_ID(2)='NITROGEN', VOLUME_FRACTION(2)=0.79 /

&SPEC ID='PRODUCTS',               SPEC_ID(1)='HYDROGEN CHLORIDE', VOLUME_FRACTION(1)=0.5,
                                   SPEC_ID(2)='WATER VAPOR',       VOLUME_FRACTION(2)=2.0,
                                   SPEC_ID(3)='CARBON MONOXIDE',   VOLUME_FRACTION(3)=0.2080,
                                   SPEC_ID(4)='CARBON DIOXIDE',    VOLUME_FRACTION(4)=1.9425,
                                   SPEC_ID(5)='SOOT',              VOLUME_FRACTION(5)=0.8495,
                                   SPEC_ID(6)='NITROGEN',          VOLUME_FRACTION(6)=11.4606 /

&REAC FUEL='XPE/Neoprene', HEAT_OF_COMBUSTION = 10300., SPEC_ID_NU='XPE/Neoprene','AIR','PRODUCTS', NU=-1,-14.5071,1, RADIATIVE_FRACTION = 0.53 /

&SURF ID     = 'ELECTRICAL FIRE'
      COLOR  = 'ORANGE'
      HRRPUA = 5850.
      RAMP_Q = 'fire' / 

&RAMP ID='fire', T=   0, F=0.0000 /
&RAMP ID='fire', T=  30, F=0.0017 /
&RAMP ID='fire', T=  60, F=0.0069 /
&RAMP ID='fire', T=  90, F=0.0156 /
&RAMP ID='fire', T= 120, F=0.0278 /
&RAMP ID='fire', T= 150, F=0.0434 /
&RAMP ID='fire', T= 180, F=0.0625 /
&RAMP ID='fire', T= 210, F=0.0851 /
&RAMP ID='fire', T= 240, F=0.1111 /
&RAMP ID='fire', T= 270, F=0.1406 /
&RAMP ID='fire', T= 300, F=0.1736 /
&RAMP ID='fire', T= 330, F=0.2101 /
&RAMP ID='fire', T= 360, F=0.2500 /
&RAMP ID='fire', T= 390, F=0.2934 /
&RAMP ID='fire', T= 420, F=0.3403 /
&RAMP ID='fire', T= 450, F=0.3906 /
&RAMP ID='fire', T= 480, F=0.4444 /
&RAMP ID='fire', T= 510, F=0.5017 /
&RAMP ID='fire', T= 540, F=0.5625 /
&RAMP ID='fire', T= 570, F=0.6267 /
! ... 7 like lines cut

&OBST XB= 1.5, 2.5, 3.0, 5.0, 0.0, 2.4, SURF_ID = 'CABINET' / 
&VENT XB= 2.5, 2.5, 3.7, 4.3, 1.9, 2.1, SURF_ID = 'ELECTRICAL FIRE' / 

Ventilation

&SURF ID='DOOR CRACK', LEAK_PATH=1,0, COLOR='BEIGE' /
&ZONE LEAK_AREA(0)=0.0117 /

&VENT XB= 0.0, 0.0, 7.0, 7.9, 0.0, 0.2, SURF_ID = 'DOOR CRACK' /

&SURF ID             = 'DUCT STEEL'
      COLOR          = 'GRAY 90'
      MATL_ID        = 'STEEL'
      THICKNESS      = 0.002 /

&SURF ID             = 'SUPPLY'
      COLOR          = 'BLUE 4'
      VOLUME_FLOW    = -0.45
      RAMP_V	     = 'PURGE' /

&SURF ID             = 'RETURN'
      COLOR          = 'CARROT'
      VOLUME_FLOW    = 1.34
      RAMP_V	     = 'PURGE' / 

&RAMP ID='PURGE', T=   0.0, F=0.0 /
&RAMP ID='PURGE', T=3600.0, F=0.0 /

&OBST XB=  3.4,  4.0,  3.0,  3.6, 3.0, 5.2, SURF_ID = 'DUCT STEEL' /
&VENT XB=  3.4,  4.0,  3.0,  3.6, 3.0, 3.0, SURF_ID = 'SUPPLY' /

&OBST XB=  3.4,  4.0,  8.6,  9.2, 3.0, 5.2, SURF_ID = 'DUCT STEEL' /
&VENT XB=  3.4,  4.0,  8.6,  9.2, 3.0, 3.0, SURF_ID = 'SUPPLY' /

&OBST XB= 12.0, 12.6,  3.0,  3.6, 3.0, 5.2, SURF_ID = 'DUCT STEEL' /
&VENT XB= 12.0, 12.6,  3.0,  3.6, 3.0, 3.0, SURF_ID = 'SUPPLY' /

&OBST XB= 12.0, 12.6,  8.6,  9.2, 3.0, 5.2, SURF_ID = 'DUCT STEEL' /
&VENT XB= 12.0, 12.6,  8.6,  9.2, 3.0, 3.0, SURF_ID = 'SUPPLY' /

&OBST XB= 20.6, 21.2,  3.0,  3.6, 3.0, 5.2, SURF_ID = 'DUCT STEEL' /
&VENT XB= 20.6, 21.2,  3.0,  3.6, 3.0, 3.0, SURF_ID = 'SUPPLY' /

&OBST XB= 20.6, 21.2,  8.6,  9.2, 3.0, 5.2, SURF_ID = 'DUCT STEEL' /
&VENT XB= 20.6, 21.2,  8.6,  9.2, 3.0, 3.0, SURF_ID = 'SUPPLY' /

&OBST XB=  3.4,  4.0, 12.7, 13.3, 4.9, 5.2, SURF_ID = 'DUCT STEEL' /
&VENT XB=  3.4,  4.0, 12.7, 13.3, 4.9, 4.9, SURF_ID = 'RETURN' /

&OBST XB= 20.6, 21.2, 12.7, 13.3, 4.9, 5.2, SURF_ID = 'DUCT STEEL' /
&VENT XB= 20.6, 21.2, 12.7, 13.3, 4.9, 4.9, SURF_ID = 'RETURN' /

Miscellaneous construction

&MATL ID             = 'CARPET'
      SPECIFIC_HEAT  = 2.0
      CONDUCTIVITY   = 1.7
      DENSITY        = 200.  /

&SURF ID             = 'CARPETED FLOOR'
      COLOR          = 'LIGHT STEEL BLUE'
      MATL_ID(1:2,1) = 'CARPET', 'CONCRETE'
      THICKNESS      = 0.0125,0.5 /

&VENT MB='ZMIN', SURF_ID='CARPETED FLOOR' / 
&VENT MB='ZMAX', SURF_ID='CONCRETE CEILING' / 

&MATL ID             = 'GYPSUM'
      SPECIFIC_HEAT  = 1.1
      CONDUCTIVITY   = 0.17
      DENSITY        = 960. /

&SURF ID             = 'GYPSUM BOARD'
      COLOR          = 'WHEAT'
      MATL_ID        = 'GYPSUM'
      THICKNESS      = 0.016 /

&VENT PBX= 0.0, SURF_ID='GYPSUM BOARD'/ west wall
&VENT PBX=24.6, SURF_ID='GYPSUM BOARD'/ east wall
&VENT PBY=16.2, SURF_ID='GYPSUM BOARD'/ north wall

&OBST XB=  0.0,  1.0, 10.0, 10.0, 0.0, 5.2, SURF_ID='GYPSUM BOARD' / 
&OBST XB=  1.0,  1.0, 10.0, 14.5, 0.0, 5.2, SURF_ID='GYPSUM BOARD' / 
&OBST XB=  1.0,  6.0, 14.5, 14.5, 0.0, 5.2, SURF_ID='GYPSUM BOARD' / 
&OBST XB=  6.0,  6.0, 14.5, 16.2, 0.0, 5.2, SURF_ID='GYPSUM BOARD' / 
&OBST XB= 20.4, 20.4, 14.5, 16.2, 0.0, 5.2, SURF_ID='GYPSUM BOARD' /  
&OBST XB= 20.4, 23.5, 14.5, 14.5, 0.0, 5.2, SURF_ID='GYPSUM BOARD' / 
&OBST XB= 23.5, 23.5, 10.0, 14.5, 0.0, 5.2, SURF_ID='GYPSUM BOARD' /
&OBST XB= 23.5, 24.6, 10.0, 10.0, 0.0, 5.2, SURF_ID='GYPSUM BOARD' /

&MATL ID             = 'STEEL'
      SPECIFIC_HEAT  = 0.465
      CONDUCTIVITY   = 54.
      DENSITY        = 7850. /

&SURF ID             = 'CABINET'
      COLOR          = 'OLIVE'
      MATL_ID        = 'STEEL'
      BACKING        = 'EXPOSED'
      THICKNESS      = 0.0015 /

&OBST XB=  1.5,  9.5,  8.0,  9.0, 0.0, 2.4, SURF_ID = 'CABINET' / 
&OBST XB=  1.5,  9.5,  6.0,  7.0, 0.0, 2.4, SURF_ID = 'CABINET' / 
&OBST XB= 14.5, 22.5,  8.0,  9.0, 0.0, 2.4, SURF_ID = 'CABINET' / 
&OBST XB= 14.5, 22.5,  6.0,  7.0, 0.0, 2.4, SURF_ID = 'CABINET' / 
&OBST XB=  6.5, 16.0, 11.0, 12.0, 0.0, 2.4, SURF_ID = 'CABINET' / 
&OBST XB=  3.5,  5.5,  4.0,  5.0, 0.0, 2.4, SURF_ID = 'CABINET' / 
&OBST XB=  9.5, 14.5,  4.0,  5.0, 0.0, 2.4, SURF_ID = 'CABINET' / 
&OBST XB= 18.6, 20.6,  4.0,  5.0, 0.0, 2.4, SURF_ID = 'CABINET' / 
&OBST XB=  0.0, 24.6,  0.0,  1.0, 0.0, 2.4, SURF_ID = 'CABINET' / 
&OBST XB=  0.0, 24.6,  1.0,  1.5, 0.0, 1.0, SURF_ID = 'CABINET' / 
&OBST XB= 21.6, 22.6,  3.0,  5.0, 0.0, 2.4, SURF_ID = 'CABINET' / 

&MATL ID                    = 'WOOD'
      SPECIFIC_HEAT         = 2.5
      CONDUCTIVITY          = 0.12
      DENSITY               = 540. /

&SURF ID             = 'TABLE'
      COLOR          = 'TOMATO'
      MATL_ID        = 'WOOD'
      THICKNESS      = 0.20 /

&OBST XB= 11.0, 13.0, 10.0, 11.0, 1.0, 1.0, SURF_ID = 'TABLE' / back table top
&OBST XB= 11.0, 13.0,  8.0,  9.0, 1.0, 1.0, SURF_ID = 'TABLE' / front table top

Human target

&OBST XB= 11.0, 11.2,  5.4,  5.6, 1.6, 1.8 / Head of operator

Output

&DUMP DT_DEVC=15., DT_HRR=15. /

&DEVC ID='HGL_Temp_FDS',   XB=11.4,11.4,5.8,5.8,0.0,5.2, QUANTITY='UPPER TEMPERATURE' /
&DEVC ID='HGL_Height_FDS', XB=11.4,11.4,5.8,5.8,0.0,5.2, QUANTITY='LAYER HEIGHT' /
&DEVC ID='Heat_Flux_FDS', XYZ=11.1,5.5,1.8, IOR=3, QUANTITY='GAUGE HEAT FLUX' /
&DEVC ID='OD_FDS', XYZ=11.4,5.8,1.8, QUANTITY='OPTICAL DENSITY' /

&PROP ID='Smoke Detector', QUANTITY='CHAMBER OBSCURATION', LENGTH=1.8, ACTIVATION_OBSCURATION = 3.28 /
&DEVC ID='Smoke1',  XYZ= 4.6,  4.6, 3.0, PROP_ID='Smoke Detector' /
&DEVC ID='Smoke2',  XYZ=12.3,  4.6, 3.0, PROP_ID='Smoke Detector' /
&DEVC ID='Smoke3',  XYZ=20.1,  4.6, 3.0, PROP_ID='Smoke Detector' /
&DEVC ID='Smoke4',  XYZ= 4.6, 12.2, 3.0, PROP_ID='Smoke Detector' /
&DEVC ID='Smoke5',  XYZ=12.3, 12.2, 3.0, PROP_ID='Smoke Detector' /
&DEVC ID='Smoke6',  XYZ=20.1, 12.2, 3.0, PROP_ID='Smoke Detector' /
&DEVC ID='Smoke7',  XYZ= 4.6,  4.6, 5.1, PROP_ID='Smoke Detector' /
&DEVC ID='Smoke8',  XYZ=12.3,  4.6, 5.1, PROP_ID='Smoke Detector' /
&DEVC ID='Smoke9',  XYZ=20.1,  4.6, 5.1, PROP_ID='Smoke Detector' /
&DEVC ID='Smoke10', XYZ= 4.6, 12.2, 5.1, PROP_ID='Smoke Detector' /
&DEVC ID='Smoke11', XYZ=12.3, 12.2, 5.1, PROP_ID='Smoke Detector' /
&DEVC ID='Smoke12', XYZ=20.1, 12.2, 5.1, PROP_ID='Smoke Detector' /

Smokeview output

&BNDF QUANTITY='WALL TEMPERATURE' /
&BNDF QUANTITY='GAUGE HEAT FLUX' /

&SLCF PBZ=1.524, QUANTITY='TEMPERATURE', VECTOR=.TRUE. /
&SLCF PBZ=1.524, QUANTITY='soot density' /

&SLCF PBX=12.3, QUANTITY='TEMPERATURE', VECTOR=.TRUE. /
&SLCF PBX=12.3, QUANTITY='soot density' /

&SLCF PBY=8.1, QUANTITY='TEMPERATURE', VECTOR=.TRUE. /
&SLCF PBY=8.1, QUANTITY='soot density' /

&SLCF PBY=4.0, QUANTITY='TEMPERATURE', VECTOR=.TRUE. /
&SLCF PBY=4.0, QUANTITY='soot density' /

End of file

&TAIL /
