&HEAD CHID='PRISME_LK_2_Lower', TITLE='PRISME Test' / 

&MESH IJK=12,9,9, XB=-.30,0.30,-.225,0.225,-.225,0.225 / 

&TIME DT=0.2, T_END=2000.0 / 

&MISC TMPA=30. /

&SURF ID='HOT', DEFAULT=.TRUE., TMP_FRONT=1030., COLOR='GRAY', RAMP_T='shroud' / 
&RAMP ID='shroud',T=   0.,F=0. /
&RAMP ID='shroud',T=  30.,F=0.001 /
&RAMP ID='shroud',T=  65.,F=0.014 /
&RAMP ID='shroud',T= 122.,F=0.065 /
&RAMP ID='shroud',T= 190.,F=0.110 /
&RAMP ID='shroud',T= 240.,F=0.165 /
&RAMP ID='shroud',T= 290.,F=0.210 /
&RAMP ID='shroud',T= 400.,F=0.265 /
&RAMP ID='shroud',T= 600.,F=0.311 /
&RAMP ID='shroud',T= 850.,F=0.366 /
&RAMP ID='shroud',T= 990.,F=0.387 /
&RAMP ID='shroud',T=1110.,F=0.330 /
&RAMP ID='shroud',T=1230.,F=0.230 /
&RAMP ID='shroud',T=1550.,F=0.127 /
&RAMP ID='shroud',T=1980.,F=0.080 /
 
&VENT XB=-.30,-.30,-.075,0.075,-.075,0.075,SURF_ID='OPEN' /  
&VENT XB=0.30,0.30,-.075,0.075,-.075,0.075,SURF_ID='OPEN' / 

&DUMP DT_DEVC=10. /

&MATL ID='IRSN_2 plastic', DENSITY=1832., CONDUCTIVITY=0.2, SPECIFIC_HEAT=1.5 /
&SURF ID='IRSN_2 shape', THICKNESS=0.007, LENGTH=0.1, MATL_ID='IRSN_2 plastic', GEOMETRY='CYLINDRICAL' /
&PART ID='IRSN_2 particle', SURF_ID='IRSN_2 shape', ORIENTATION=0,0,1, STATIC=.TRUE., PROP_ID='IRSN_2 picture' /
&PROP ID='IRSN_2 picture', SMOKEVIEW_ID='TUBE', SMOKEVIEW_PARAMETERS='L=0.1','D=0.014' /
&INIT ID='IRSN_2 position', XYZ=0.01,,0.,,0., N_PARTICLES=1, PART_ID='IRSN_2 particle' /

&MATL ID='TRAC_1 plastic', DENSITY=2070., CONDUCTIVITY=0.2, SPECIFIC_HEAT=1.5 /
&SURF ID='TRAC_1 shape', THICKNESS=0.00615, LENGTH=0.1, MATL_ID='TRAC_1 plastic', GEOMETRY='CYLINDRICAL' /
&PART ID='TRAC_1 particle', SURF_ID='TRAC_1 shape', ORIENTATION=0,0,1, STATIC=.TRUE., PROP_ID='TRAC_1 picture' /
&PROP ID='TRAC_1 picture', SMOKEVIEW_ID='TUBE', SMOKEVIEW_PARAMETERS='L=0.1','D=0.0123' /
&INIT ID='TRAC_1 position', XYZ=0.01,,0.,,0., N_PARTICLES=1, PART_ID='TRAC_1 particle' /

&MATL ID='TRAC_3 plastic', DENSITY=2122., CONDUCTIVITY=0.2, SPECIFIC_HEAT=1.5 /
&SURF ID='TRAC_3 shape', THICKNESS=0.006, LENGTH=0.1, MATL_ID='TRAC_3 plastic', GEOMETRY='CYLINDRICAL' /
&PART ID='TRAC_3 particle', SURF_ID='TRAC_3 shape', ORIENTATION=0,0,1, STATIC=.TRUE., PROP_ID='TRAC_3 picture' /
&PROP ID='TRAC_3 picture', SMOKEVIEW_ID='TUBE', SMOKEVIEW_PARAMETERS='L=0.1','D=0.012' /
&INIT ID='TRAC_3 position', XYZ=0.01,,0.,,0., N_PARTICLES=1, PART_ID='TRAC_3 particle' /

&DEVC XYZ=0.00,0.00,0.225, IOR=-3, ID='Air Temp', QUANTITY='WALL TEMPERATURE' /
&DEVC XYZ=0.01,0.00,0.000, ID='IRSN_2', INIT_ID='IRSN_2 position', QUANTITY='INSIDE WALL TEMPERATURE', DEPTH=0.002 /
&DEVC XYZ=0.01,0.00,0.000, ID='TRAC_1', INIT_ID='TRAC_1 position', QUANTITY='INSIDE WALL TEMPERATURE', DEPTH=0.003 /
&DEVC XYZ=0.01,0.00,0.000, ID='TRAC_3', INIT_ID='TRAC_3 position', QUANTITY='INSIDE WALL TEMPERATURE', DEPTH=0.003 /

&TAIL /
