&HEAD CHID='PRISME_LK_4', TITLE='PRISME Test' / 

&MESH IJK=12,9,9, XB=-.30,0.30,-.225,0.225,-.225,0.225 / 

&TIME DT=0.2, T_END=2000.0 / 

&MISC TMPA=20. /

&SURF ID='HOT', DEFAULT=.TRUE., TMP_FRONT=1020., COLOR='GRAY', RAMP_T='shroud' / 
&RAMP ID='shroud',T=   0.,F=0. /
&RAMP ID='shroud',T=  22.,F=0.010 /
&RAMP ID='shroud',T= 106.,F=0.200 /
&RAMP ID='shroud',T= 167.,F=0.190 /
&RAMP ID='shroud',T= 340.,F=0.370 /
&RAMP ID='shroud',T= 510.,F=0.380 /
&RAMP ID='shroud',T= 750.,F=0.340 /
&RAMP ID='shroud',T= 870.,F=0.290 /
&RAMP ID='shroud',T= 960.,F=0.680 /
&RAMP ID='shroud',T=1030.,F=0.395 /
&RAMP ID='shroud',T=1250.,F=0.200 /
&RAMP ID='shroud',T=1880.,F=0.070 /
 
&VENT XB=-.30,-.30,-.075,0.075,-.075,0.075,SURF_ID='OPEN' /  
&VENT XB=0.30,0.30,-.075,0.075,-.075,0.075,SURF_ID='OPEN' / 

&DUMP DT_DEVC=10. /

&MATL ID='IRSN_1 plastic', DENSITY=2266., CONDUCTIVITY=0.2, SPECIFIC_HEAT=1.5 /
&SURF ID='IRSN_1 shape', THICKNESS=0.00925, LENGTH=0.1, MATL_ID='IRSN_1 plastic', GEOMETRY='CYLINDRICAL' /
&PART ID='IRSN_1 particle', SURF_ID='IRSN_1 shape', ORIENTATION=0,0,1, STATIC=.TRUE., PROP_ID='IRSN_1 picture' /
&PROP ID='IRSN_1 picture', SMOKEVIEW_ID='TUBE', SMOKEVIEW_PARAMETERS='L=0.1','D=0.0185' /
&INIT ID='IRSN_1 position', XYZ=0.01,,0.,,0., N_PARTICLES=1, PART_ID='IRSN_1 particle' /

&MATL ID='IRSN_2 plastic', DENSITY=1832., CONDUCTIVITY=0.2, SPECIFIC_HEAT=1.5 /
&SURF ID='IRSN_2 shape', THICKNESS=0.007, LENGTH=0.1, MATL_ID='IRSN_2 plastic', GEOMETRY='CYLINDRICAL' /
&PART ID='IRSN_2 particle', SURF_ID='IRSN_2 shape', ORIENTATION=0,0,1, STATIC=.TRUE., PROP_ID='IRSN_2 picture' /
&PROP ID='IRSN_2 picture', SMOKEVIEW_ID='TUBE', SMOKEVIEW_PARAMETERS='L=0.1','D=0.014' /
&INIT ID='IRSN_2 position', XYZ=0.01,,0.,,0., N_PARTICLES=1, PART_ID='IRSN_2 particle' /

&MATL ID='TRAC_2 plastic', DENSITY=1771., CONDUCTIVITY=0.2, SPECIFIC_HEAT=1.5 /
&SURF ID='TRAC_2 shape', THICKNESS=0.00665, LENGTH=0.1, MATL_ID='TRAC_2 plastic', GEOMETRY='CYLINDRICAL' /
&PART ID='TRAC_2 particle', SURF_ID='TRAC_2 shape', ORIENTATION=0,0,1, STATIC=.TRUE., PROP_ID='TRAC_2 picture' /
&PROP ID='TRAC_2 picture', SMOKEVIEW_ID='TUBE', SMOKEVIEW_PARAMETERS='L=0.1','D=0.0133' /
&INIT ID='TRAC_2 position', XYZ=0.01,,0.,,0., N_PARTICLES=1, PART_ID='TRAC_2 particle' /

&MATL ID='TRAC_3 plastic', DENSITY=2122., CONDUCTIVITY=0.2, SPECIFIC_HEAT=1.5 /
&SURF ID='TRAC_3 shape', THICKNESS=0.006, LENGTH=0.1, MATL_ID='TRAC_3 plastic', GEOMETRY='CYLINDRICAL' /
&PART ID='TRAC_3 particle', SURF_ID='TRAC_3 shape', ORIENTATION=0,0,1, STATIC=.TRUE., PROP_ID='TRAC_3 picture' /
&PROP ID='TRAC_3 picture', SMOKEVIEW_ID='TUBE', SMOKEVIEW_PARAMETERS='L=0.1','D=0.012' /
&INIT ID='TRAC_3 position', XYZ=0.01,,0.,,0., N_PARTICLES=1, PART_ID='TRAC_3 particle' /

&MATL ID='TRAC_4 plastic', DENSITY=1719., CONDUCTIVITY=0.2, SPECIFIC_HEAT=1.5 /
&SURF ID='TRAC_4 shape', THICKNESS=0.00675, LENGTH=0.1, MATL_ID='TRAC_4 plastic', GEOMETRY='CYLINDRICAL' /
&PART ID='TRAC_4 particle', SURF_ID='TRAC_4 shape', ORIENTATION=0,0,1, STATIC=.TRUE., PROP_ID='TRAC_4 picture' /
&PROP ID='TRAC_4 picture', SMOKEVIEW_ID='TUBE', SMOKEVIEW_PARAMETERS='L=0.1','D=0.0135' /
&INIT ID='TRAC_4 position', XYZ=0.01,,0.,,0., N_PARTICLES=1, PART_ID='TRAC_4 particle' /

&MATL ID='VTT_1 plastic', DENSITY=1959., CONDUCTIVITY=0.2, SPECIFIC_HEAT=1.5 /
&SURF ID='VTT_1 shape', THICKNESS=0.0065, LENGTH=0.1, MATL_ID='VTT_1 plastic', GEOMETRY='CYLINDRICAL' /
&PART ID='VTT_1 particle', SURF_ID='VTT_1 shape', ORIENTATION=0,0,1, STATIC=.TRUE., PROP_ID='VTT_1 picture' /
&PROP ID='VTT_1 picture', SMOKEVIEW_ID='TUBE', SMOKEVIEW_PARAMETERS='L=0.1','D=0.013' /
&INIT ID='VTT_1 position', XYZ=0.01,,0.,,0., N_PARTICLES=1, PART_ID='VTT_1 particle' /

&MATL ID='GRS_2 plastic', DENSITY=3231., CONDUCTIVITY=0.2, SPECIFIC_HEAT=1.5 /
&SURF ID='GRS_2 shape', THICKNESS=0.0135, LENGTH=0.1, MATL_ID='GRS_2 plastic', GEOMETRY='CYLINDRICAL' /
&PART ID='GRS_2 particle', SURF_ID='GRS_2 shape', ORIENTATION=0,0,1, STATIC=.TRUE., PROP_ID='GRS_2 picture' /
&PROP ID='GRS_2 picture', SMOKEVIEW_ID='TUBE', SMOKEVIEW_PARAMETERS='L=0.1','D=0.027' /
&INIT ID='GRS_2 position', XYZ=0.01,,0.,,0., N_PARTICLES=1, PART_ID='GRS_2 particle' /

&MATL ID='NRC_1 plastic', DENSITY=2320., CONDUCTIVITY=0.2, SPECIFIC_HEAT=1.5 /
&SURF ID='NRC_1 shape', THICKNESS=0.0075, LENGTH=0.1, MATL_ID='NRC_1 plastic', GEOMETRY='CYLINDRICAL' /
&PART ID='NRC_1 particle', SURF_ID='NRC_1 shape', ORIENTATION=0,0,1, STATIC=.TRUE., PROP_ID='NRC_1 picture' /
&PROP ID='NRC_1 picture', SMOKEVIEW_ID='TUBE', SMOKEVIEW_PARAMETERS='L=0.1','D=0.015' /
&INIT ID='NRC_1 position', XYZ=0.01,,0.,,0., N_PARTICLES=1, PART_ID='NRC_1 particle' /

&DEVC XYZ=0.00,0.00,0.225, IOR=-3, ID='Air Temp', QUANTITY='WALL TEMPERATURE' /
&DEVC XYZ=0.01,0.00,0.000, ID='IRSN_1', INIT_ID='IRSN_1 position', QUANTITY='INSIDE WALL TEMPERATURE', DEPTH=0.002 /
&DEVC XYZ=0.01,0.00,0.000, ID='IRSN_2', INIT_ID='IRSN_2 position', QUANTITY='INSIDE WALL TEMPERATURE', DEPTH=0.002 /
&DEVC XYZ=0.01,0.00,0.000, ID='TRAC_2', INIT_ID='TRAC_2 position', QUANTITY='INSIDE WALL TEMPERATURE', DEPTH=0.003 /
&DEVC XYZ=0.01,0.00,0.000, ID='TRAC_3', INIT_ID='TRAC_3 position', QUANTITY='INSIDE WALL TEMPERATURE', DEPTH=0.003 /
&DEVC XYZ=0.01,0.00,0.000, ID='TRAC_4', INIT_ID='TRAC_4 position', QUANTITY='INSIDE WALL TEMPERATURE', DEPTH=0.003 /
&DEVC XYZ=0.01,0.00,0.000, ID='VTT_1', INIT_ID='VTT_1 position', QUANTITY='INSIDE WALL TEMPERATURE', DEPTH=0.002 /
&DEVC XYZ=0.01,0.00,0.000, ID='GRS_2', INIT_ID='GRS_2 position', QUANTITY='INSIDE WALL TEMPERATURE', DEPTH=0.002 /
&DEVC XYZ=0.01,0.00,0.000, ID='NRC_1', INIT_ID='NRC_1 position', QUANTITY='INSIDE WALL TEMPERATURE', DEPTH=0.0015 /

&TAIL /
