&HEAD CHID='PRISME_LK_1_Upper', TITLE='PRISME Test' / 

&MESH IJK=12,9,9, XB=-.30,0.30,-.225,0.225,-.225,0.225 / 

&TIME DT=0.2, T_END=2000.0 / 

&MISC TMPA=30. /

&SURF ID='HOT', DEFAULT=.TRUE., TMP_FRONT=600., COLOR='GRAY', RAMP_T='shroud' / 
&RAMP ID='shroud',T=   0.,F=0. /
&RAMP ID='shroud',T= 100.,F=0.35 /
&RAMP ID='shroud',T= 200.,F=0.44 /
&RAMP ID='shroud',T= 300.,F=0.65 /
&RAMP ID='shroud',T= 400.,F=0.72 /
&RAMP ID='shroud',T= 500.,F=0.76 /
&RAMP ID='shroud',T= 600.,F=0.82 /
&RAMP ID='shroud',T= 700.,F=0.88 /
&RAMP ID='shroud',T= 800.,F=0.97 /
&RAMP ID='shroud',T= 900.,F=0.98 /
&RAMP ID='shroud',T=1000.,F=0.90 /
&RAMP ID='shroud',T=1100.,F=0.70 /
&RAMP ID='shroud',T=1200.,F=0.45 /
&RAMP ID='shroud',T=1300.,F=0.35 /
&RAMP ID='shroud',T=1400.,F=0.29 /
&RAMP ID='shroud',T=1500.,F=0.25 /
&RAMP ID='shroud',T=1600.,F=0.21 /
&RAMP ID='shroud',T=1800.,F=0.16 /
&RAMP ID='shroud',T=2000.,F=0.13 /
 
&VENT XB=-.30,-.30,-.075,0.075,-.075,0.075,SURF_ID='OPEN' /  
&VENT XB=0.30,0.30,-.075,0.075,-.075,0.075,SURF_ID='OPEN' / 

&DUMP DT_DEVC=10. /

&MATL ID='NRC_1 plastic', DENSITY=2320., CONDUCTIVITY=0.2, SPECIFIC_HEAT=1.5 /
&SURF ID='NRC_1 shape', THICKNESS=0.0075, LENGTH=0.1, MATL_ID='NRC_1 plastic', GEOMETRY='CYLINDRICAL' /
&PART ID='NRC_1 particle', SURF_ID='NRC_1 shape', ORIENTATION=0,0,1, STATIC=.TRUE., PROP_ID='NRC_1 picture' /
&PROP ID='NRC_1 picture', SMOKEVIEW_ID='TUBE', SMOKEVIEW_PARAMETERS='L=0.1','D=0.015' /
&INIT ID='NRC_1 position', XYZ=0.01,,0.,,0., N_PARTICLES=1, PART_ID='NRC_1 particle' /

&DEVC XYZ=0.00,0.00,0.225, IOR=-3, ID='Air Temp', QUANTITY='WALL TEMPERATURE' /
&DEVC XYZ=0.01,0.00,0.000, ID='NRC_1', INIT_ID='NRC_1 position', QUANTITY='INSIDE WALL TEMPERATURE', DEPTH=0.0015 /

&TAIL /
