&HEAD CHID='NIST_Gasification_Test_R4', TITLE='Black PMMA at 50 kW/m2 in Gasification Apparatus Test R4' /

&MESH XB=0,1,0,1,0,1,IJK=5,1,4/

&MISC SOLID_PHASE_ONLY=T,TMPA=20.45/
&VENT XB=0.0,0.2,0,1,0,0,SURF_ID='SAMPLE1'/

&TIME T_END=500,DT=0.01/

&CATF OTHER_FILES='pmma_properties.txt' /

&MATL ID='KPM',
      DENSITY = 256.,
      SPECIFIC_HEAT_RAMP = 'KPM_CP',
      CONDUCTIVITY_RAMP = 'KPM_K',
      EMISSIVITY = 0.92/

&MATL ID='AL',
      DENSITY = 2700.,
      SPECIFIC_HEAT = 0.89,
      CONDUCTIVITY = 100.,
      EMISSIVITY = 0.3/

! The PMMA was bonded to the the Kaowoll PM (KPM) using a combustible adhesive.
! The mass of adhesive was treated as if it were PMMA and the sample thickess adjusted accordingly.
&SURF ID='SAMPLE1',
      HEAT_TRANSFER_COEFFICIENT=13.,
      COLOR='WHITE',
      MATL_ID='BLACK PMMA','KPM','AL',
      THICKNESS=0.006077,0.02852,0.00635,
      STRETCH_FACTOR=1
      EXTERNAL_FLUX=50/

&RAMP ID='KPM_CP', T=26.85, F=0.7653/
&RAMP ID='KPM_CP', T=226.85, F=1.0211/
&RAMP ID='KPM_CP', T=526.85, F=1.2128/
&RAMP ID='KPM_CP', T=626.85, F=1.1711/
&RAMP ID='KPM_CP', T=1326.85, F=1.2834/

&RAMP ID='KPM_K', T=260, F=0.0576/
&RAMP ID='KPM_K', T=538, F=0.085/
&RAMP ID='KPM_K', T=816, F=0.125/
&RAMP ID='KPM_K', T=1093, F=0.183/

&DEVC ID='Mass', QUANTITY='CONTROL VALUE',CTRL_ID='MP', UNITS='[g]' /
&DEVC ID='MLR', XYZ=0.1,0.5,0.0, IOR=3, QUANTITY='BURNING RATE', CONVERSION_FACTOR=1000, UNITS='[g/m2/s]' /
&DEVC ID='Back Surface Temperature', XYZ=0.1,0.5,0.0, IOR=3, QUANTITY='INSIDE WALL TEMPERATURE',DEPTH=-0.03487, CONVERSION_ADDEND=273, UNITS='[K]'/
&DEVC ID='Top Surface Temperature',  XYZ=0.1,0.5,0.0, IOR=3, QUANTITY='WALL TEMPERATURE', CONVERSION_ADDEND=273, UNITS='[K]'/
&DEVC XYZ=0.1,0.5,0.0,QUANTITY='SURFACE DENSITY',MATL_ID='BLACK PMMA',ID='SD_B',IOR=3/
&DEVC XYZ=0.1,0.5,0.0,QUANTITY='SURFACE DENSITY',MATL_ID='PMMA_INT',ID='SD_I',IOR=3/
&DEVC XYZ=0.1,0.5,0.0,QUANTITY='SURFACE DENSITY',MATL_ID='PMMA_CHAR',ID='SD_C',IOR=3/

! Sums the virgin, intermediate, and char masses
&CTRL ID='SDsum',FUNCTION_TYPE='SUM',INPUT_ID='SD_B','SD_I','SD_C'/

! The functions below remove that portion of the PMMA mass that is the adhesive to give
! SDs - PMMA surface density in kg/m2
! SDn - Normalized surface density
! MP - Mass of PMMA in g
&CTRL ID='SDs',FUNCTION_TYPE='SUBTRACT',INPUT_ID='SDsum','CONSTANT',CONSTANT=0.66487/
&CTRL ID='SDn',FUNCTION_TYPE='DIVIDE',INPUT_ID='SDs','CONSTANT',CONSTANT=7.3535/
&CTRL ID='MP',FUNCTION_TYPE='MULTIPLY',INPUT_ID='SDn','CONSTANT',CONSTANT=28.192/


