*Heading
** Job name: Ibeam180 Model name: Model-1
** Generated by: Abaqus/CAE 6.10-1
*Preprint, echo=NO, model=NO, history=NO, contact=NO
**
** PARTS
**
*Part, name=Part-1
*End Part
**  
**
** ASSEMBLY
**
*Assembly, name=Assembly
**  
*Instance, name=Part-1-1, part=Part-1
*Node
      1, -0.419999987, 0.0599999987,           0.
      2, -0.419999987, 0.00999999978,           0.
      3,  0.419999987, 0.00999999978,           0.
      4,  0.419999987, 0.0599999987,           0.
      5, -0.579999983, 0.00999999978,           0.
      6,  0.579999983, 0.00999999978,           0.
      7, -0.600000024, -0.0599999987,           0.
      8, -0.579999983, -0.0599999987,           0.
      9,  0.579999983, -0.0599999987,           0.
     10,  0.600000024, -0.0599999987,           0.
     11, -0.579999983, -0.00999999978,           0.
     12,  0.579999983, -0.00999999978,           0.
     13, -0.419999987, -0.00999999978,           0.
     14,  0.419999987, -0.00999999978,           0.
     15, -0.419999987, -0.0599999987,           0.
     16,  0.419999987, -0.0599999987,           0.
     17, -0.400000006, -0.0599999987,           0.
     18,  0.400000006, -0.0599999987,           0.
     19, -0.400000006, 0.0599999987,           0.
     20,  0.400000006, 0.0599999987,           0.
** ... 3552 like lines cut
*Element, type=DC3D4
    1, 3204, 1054, 1053,   80
    2, 3205, 2558, 1040, 2553
    3, 2185, 1128, 3206, 1540
    4, 1234,   63, 3207,   62
    5, 3208, 2503,  122, 1029
    6,   58, 3209, 2511, 2512
    7, 2512,   58,   57, 2511
    8, 3210, 1031,  120, 1030
    9, 3211, 1253, 1384, 1458
   10, 3211, 1458, 1990, 2068
   11, 3211, 1238, 1849, 1384
   12, 3211, 1856, 2068, 1990
   13, 3211, 1849, 1238, 1856
   14, 1849, 1384, 1990, 3211
   15, 1734, 1569, 1077, 3212
   16, 1622, 1734, 1569, 1077
   17, 3212, 1734, 1569, 2196
   18, 3212, 2195, 1734, 2196
   19, 1561, 2171, 1733, 1618
   20, 3212, 1561, 2195, 1569
** ... 11247 like lines cut
*Nset, nset=_PickedSet2, internal, generate
    1,  3572,     1
*Elset, elset=_PickedSet2, internal, generate
     1,  11267,      1
** Section: Section-1
*Solid Section, elset=_PickedSet2, material=Aluminum
,
*End Instance
**  
*Nset, nset=_PickedSet25, internal, instance=Part-1-1, generate
    1,  3572,     1
*Elset, elset=_PickedSet25, internal, instance=Part-1-1, generate
     1,  11267,      1
*Nset, nset=Set-Cold, instance=Part-1-1
   3,   4,   6,   9,  10,  12,  14,  16,  18,  20,  22,  23,  89, 250, 251, 252
 253, 254, 255, 256, 528, 599, 600, 601, 602, 603, 604, 605, 670, 802, 803, 804
 805, 806, 898, 899, 900, 901, 902, 903
*Elset, elset=Set-Cold, instance=Part-1-1
   227,   230,   253,   375,  1102,  1198,  1475,  1476,  1532,  1688,  1926,  2158,  3489,  3497,  3990,  3992
  3993,  3994,  4216,  6079,  6112,  6151,  7272,  8864,  8865,  8886,  8889,  8900, 10389, 10401, 10411, 10417
 10453, 10467, 10490, 10506, 10522, 10531
*Nset, nset=Set-Hot, instance=Part-1-1
   1,   2,   5,   7,   8,  11,  13,  15,  17,  19,  21,  24,  25, 153, 154, 155
 156, 157, 158, 159, 437, 529, 530, 531, 532, 533, 534, 535, 606, 734, 735, 736
 737, 738, 807, 904, 905, 906, 907, 908
*Elset, elset=Set-Hot, instance=Part-1-1
   158,   159,   282,   982,   985,  1757,  3470,  3480,  3485,  3978,  4127,  4234,  5360,  5361,  6091,  6109
  6125,  6135,  6138,  6480,  6934,  7347,  7374,  8156,  8167,  8186,  8792,  8813,  8819,  8826,  9987, 10245
 10249, 10261, 10468, 10498, 10504, 10515
*End Assembly
** 
** MATERIALS
** 
*Material, name=Aluminum
*Conductivity
237.,
*Density
2700.,
*Elastic
 7e+10, 0.35
*Specific Heat
900.,
** 
** PREDEFINED FIELDS
** 
** Name: Predefined Field-1   Type: Temperature
*Initial Conditions, type=TEMPERATURE
_PickedSet25, 20.
** ----------------------------------------------------------------
** 
** STEP: Step-1
** 
*Step, name=Step-1
*Heat Transfer, end=PERIOD, deltmx=10.
1., 300., 0.003, 300., 
** 
** BOUNDARY CONDITIONS
** 
** Name: BC-1 Type: Temperature
*Boundary
Set-Cold, 11, 11, 20.
** Name: BC-2 Type: Temperature
*Boundary
Set-Hot, 11, 11, 100.
** 
** OUTPUT REQUESTS
** 
*Restart, write, frequency=0
** 
** FIELD OUTPUT: F-Output-1
** 
*Output, field, variable=PRESELECT
*Output, history, frequency=0
*End Step
