&HEAD CHID='Arch_demo', TITLE='Demo of Abaqus >> Matlab freeBoundary, created by Ibeam_demo.m' /
  
&MESH IJK=32,32,32, XB=-1.,1.,-1.,1.,0,1/
  
&TIME T_END=10./
  
&MISC IMMERSED_BOUNDARY_METHOD=1 /
  
&SURF ID='hot', COLOR='RED', CONVECTIVE_HEAT_FLUX=1000. / TMP_FRONT=1000., H_FIXED=10./
&SURF ID='cold', COLOR='BLUE'/
  
&VENT MB='XMIN', SURF_ID='OPEN'/
&VENT MB='XMAX', SURF_ID='OPEN'/
&VENT MB='YMIN', SURF_ID='OPEN'/
&VENT MB='YMAX', SURF_ID='OPEN'/
&VENT MB='ZMAX', SURF_ID='OPEN'/
VENT XB=-.2,.2,-.2,.2,0,0, SURF_ID='hot'/
  
&MATL ID='my solid', DENSITY=1000., CONDUCTIVITY=1., SPECIFIC_HEAT=1. /
  
&SLCF PBY=0, QUANTITY='TEMPERATURE', VECTOR=.TRUE. /
&SLCF PBX=0, QUANTITY='TEMPERATURE', VECTOR=.TRUE. /

&BNDE QUANTITY='GAS TEMPERATURE' /

&VERT X=-0.42,0.06,0 /
&VERT X=-0.42,0.01,0 /
&VERT X=0.42,0.01,0 /
&VERT X=0.42,0.06,0 /
&VERT X=-0.58,0.01,0 /
&VERT X=0.58,0.01,0 /
&VERT X=-0.6,-0.06,0 /
&VERT X=-0.58,-0.06,0 /
&VERT X=0.58,-0.06,0 /
&VERT X=0.6,-0.06,0 /
&VERT X=-0.58,-0.01,0 /
&VERT X=0.58,-0.01,0 /
&VERT X=-0.42,-0.01,0 /
&VERT X=0.42,-0.01,0 /
&VERT X=-0.42,-0.06,0 /
&VERT X=0.42,-0.06,0 /
&VERT X=-0.4,-0.06,0 /
&VERT X=0.4,-0.06,0 /
&VERT X=-0.4,0.06,0 /
&VERT X=0.4,0.06,0 /
! ... 3552 like lines cut
  
&FACE N=1054,1053,80, SURF_ID='hot' /
&FACE N=1234,63,62, SURF_ID='hot' /
&FACE N=1031,120,1030, SURF_ID='hot' /
&FACE N=1253,1384,1458, SURF_ID='hot' /
&FACE N=1856,2068,1990, SURF_ID='hot' /
&FACE N=1622,1077,1569, SURF_ID='hot' /
&FACE N=2195,1734,2196, SURF_ID='hot' /
&FACE N=79,1228,80, SURF_ID='hot' /
&FACE N=589,590,1876, SURF_ID='hot' /
&FACE N=2004,1730,2002, SURF_ID='hot' /
&FACE N=1730,2004,2111, SURF_ID='hot' /
&FACE N=2349,672,671, SURF_ID='hot' /
&FACE N=1720,346,345, SURF_ID='hot' /
&FACE N=3188,350,349, SURF_ID='hot' /
&FACE N=1718,343,1717, SURF_ID='hot' /
&FACE N=1983,1880,1817, SURF_ID='hot' /
&FACE N=1984,1817,1942, SURF_ID='hot' /
&FACE N=1817,1880,1942, SURF_ID='hot' /
&FACE N=2036,1985,1883, SURF_ID='hot' /
&FACE N=815,991,990, SURF_ID='hot' /
! ... 6382 like lines cut
  
&VOLU N=3204,1054,1053,80, MATL_ID='my solid' /
&VOLU N=3205,2558,1040,2553, MATL_ID='my solid' /
&VOLU N=2185,1128,3206,1540, MATL_ID='my solid' /
&VOLU N=1234,63,3207,62, MATL_ID='my solid' /
&VOLU N=3208,2503,122,1029, MATL_ID='my solid' /
&VOLU N=58,3209,2511,2512, MATL_ID='my solid' /
&VOLU N=2512,58,57,2511, MATL_ID='my solid' /
&VOLU N=3210,1031,120,1030, MATL_ID='my solid' /
&VOLU N=3211,1253,1384,1458, MATL_ID='my solid' /
&VOLU N=3211,1458,1990,2068, MATL_ID='my solid' /
&VOLU N=3211,1238,1849,1384, MATL_ID='my solid' /
&VOLU N=3211,1856,2068,1990, MATL_ID='my solid' /
&VOLU N=3211,1849,1238,1856, MATL_ID='my solid' /
&VOLU N=1849,1384,1990,3211, MATL_ID='my solid' /
&VOLU N=1734,1569,1077,3212, MATL_ID='my solid' /
&VOLU N=1622,1734,1569,1077, MATL_ID='my solid' /
&VOLU N=3212,1734,1569,2196, MATL_ID='my solid' /
&VOLU N=3212,2195,1734,2196, MATL_ID='my solid' /
&VOLU N=1561,2171,1733,1618, MATL_ID='my solid' /
&VOLU N=3212,1561,2195,1569, MATL_ID='my solid' /
! ... 11247 like lines cut
  
&TAIL /
