*Heading
** Job name: Cylinder Model name: Model-1
** Generated by: Abaqus/CAE 6.10-1
*Preprint, echo=NO, model=NO, history=NO, contact=NO
**
** PARTS
**
*Part, name=Part-1
*End Part
**  
**
** ASSEMBLY
**
*Assembly, name=Assembly
**  
*Instance, name=Part-1-1, part=Part-1
*Node
      1,         0.25,           0.,           0.
      2,         0.25,           0.,           1.
      3,  0.176776692,  0.176776692,           0.
      4,           0.,         0.25,           0.
      5, -0.176776692,  0.176776692,           0.
      6,        -0.25,           0.,           0.
      7, -0.176776692, -0.176776692,           0.
      8,           0.,        -0.25,           0.
      9,  0.176776692, -0.176776692,           0.
     10,  0.176776692, -0.176776692,           1.
     11,           0.,        -0.25,           1.
     12, -0.176776692, -0.176776692,           1.
     13,        -0.25,           0.,           1.
     14, -0.176776692,  0.176776692,           1.
     15,           0.,         0.25,           1.
     16,  0.176776692,  0.176776692,           1.
     17,           0., -0.063948296,           0.
     18, 0.0707109421, 0.0881572068,           0.
     19, -0.0712131485, 0.0901971236,           0.
     20,  0.176776692, -0.176776692,  0.800000012
** ... 45 like lines cut
*Element, type=DC3D4
  1, 55, 56, 37, 45
  2, 37, 55, 57, 56
  3, 55, 57, 48, 40
  4, 55, 49, 58, 48
  5, 55, 39, 57, 40
  6, 55, 56, 58, 49
  7, 55, 58, 56, 45
  8, 59, 54, 13, 12
  9, 12, 59, 60, 22
 10, 59, 15, 24, 14
 11, 59, 14, 52, 15
 12, 59, 13, 52, 14
 13, 55, 49, 57, 56
 14, 58, 61, 17, 18
 15, 56, 37, 62, 57
 16, 55, 58, 45, 46
 17, 58, 47,  7, 46
 18, 58, 47,  6,  7
 19, 58,  6, 19, 17
 20, 55, 48, 57, 49
** ... 158 like lines cut
*Nset, nset=_PickedSet2, internal, generate
  1,  65,   1
*Elset, elset=_PickedSet2, internal, generate
   1,  178,    1
** Section: Section-1
*Solid Section, elset=_PickedSet2, material=Aluminum
,
*End Instance
**  
*Nset, nset=_PickedSet4, internal, instance=Part-1-1, generate
  1,  65,   1
*Elset, elset=_PickedSet4, internal, instance=Part-1-1, generate
   1,  178,    1
*Nset, nset=Set-Hot, instance=Part-1-1
  1,  3,  4,  5,  6,  7,  8,  9, 17, 18, 19
*Elset, elset=Set-Hot, instance=Part-1-1
  19,  71,  80,  83, 102, 104, 107, 147, 156, 160, 162, 172
*Nset, nset=Set-Cold, instance=Part-1-1
  2, 10, 11, 12, 13, 14, 15, 16, 52, 53, 54
*Elset, elset=Set-Cold, instance=Part-1-1
   8,  11,  12,  34,  55, 110, 123, 141, 142, 144, 148, 176
*End Assembly
** 
** MATERIALS
** 
*Material, name=Aluminum
*Conductivity
237.,
*Density
2700.,
*Elastic
 7e+10, 0.35
*Specific Heat
900.,
** 
** PREDEFINED FIELDS
** 
** Name: Predefined Field-1   Type: Temperature
*Initial Conditions, type=TEMPERATURE
_PickedSet4, 20.
** ----------------------------------------------------------------
** 
** STEP: Step-1
** 
*Step, name=Step-1
*Heat Transfer, end=PERIOD, deltmx=10.
300., 300., 0.003, 300., 
** 
** BOUNDARY CONDITIONS
** 
** Name: BC-1 Type: Temperature
*Boundary
Set-Cold, 11, 11, 20.
** Name: BC-2 Type: Temperature
*Boundary
Set-Hot, 11, 11, 100.
** 
** OUTPUT REQUESTS
** 
*Restart, write, frequency=0
** 
** FIELD OUTPUT: F-Output-1
** 
*Output, field, variable=PRESELECT
*Output, history, frequency=0
*End Step
