*Heading
** Job name: Ibeam Model name: Model-1
** Generated by: Abaqus/CAE 6.10-1
*Preprint, echo=NO, model=NO, history=NO, contact=NO
**
** PARTS
**
*Part, name=Part-1
*End Part
**  
**
** ASSEMBLY
**
*Assembly, name=Assembly
**  
*Instance, name=Part-1-1, part=Part-1
          0.,           0.,           0.
          0.,           0.,           0., -0.678598321477356, 0.678598321477356, 0.281084644583813, 62.7994290620055
*Node
      1, 0.0500000007, 0.0199999996,           1.
      2, 0.0500000007,  0.180000007,           1.
      3, 0.0500000007,  0.180000007,           0.
      4, 0.0500000007, 0.0199999996,           0.
      5,           0.,  0.180000007,           1.
      6,           0.,  0.180000007,           0.
      7,  0.119999997,  0.180000007,           1.
      8, 0.0700000003,  0.180000007,           1.
      9, 0.0700000003,  0.180000007,           0.
     10,  0.119999997,  0.180000007,           0.
     11, 0.0700000003, 0.0199999996,           1.
     12, 0.0700000003, 0.0199999996,           0.
     13,  0.119999997, 0.0199999996,           1.
     14,  0.119999997, 0.0199999996,           0.
     15,  0.119999997,           0.,           1.
     16,  0.119999997,           0.,           0.
     17,           0.,           0.,           1.
     18,           0.,           0.,           0.
     19,           0., 0.0199999996,           1.
     20,           0., 0.0199999996,           0.
** ... 1051 like lines cut
*Element, type=DC3D4
   1,  697,   43,  147,   44
   2,   95,  893, 1021, 1022
   3, 1021,   17,  305,  373
   4, 1023,  663,  470,  469
   5,  473,  668, 1023,  664
   6,  533,  538, 1024,  537
   7, 1025,  448,   28,  637
   8, 1025,   27,  197,   28
   9,  570,  566, 1026,  759
  10, 1027,  560,  556,  749
  11,   73,  541, 1028,   72
  12, 1028, 1024,   74,  223
  13,  758,  571,  566,  567
  14, 1024,  223,  533,   74
  15, 1024,  727,  728,  732
  16, 1029,   22,  130,    6
  17, 1029,    6,  604,  129
  18, 1029,  130,  407,  604
  19, 1020, 1019,  409,    9
  20, 1029,  129,  604,  406
** ... 3089 like lines cut
*Nset, nset=_PickedSet2, internal, generate
    1,  1071,     1
*Elset, elset=_PickedSet2, internal, generate
    1,  3109,     1
** Section: Section-1
*Solid Section, elset=_PickedSet2, material=Aluminum
,
*End Instance
**  
*Nset, nset=Set-Cold, instance=Part-1-1
   1,   2,   5,   7,   8,  11,  13,  15,  17,  19,  21,  24,  25,  26,  27,  28
  97, 131, 197, 198, 199, 200, 237, 303, 304, 305, 373, 442, 443, 444
*Elset, elset=Set-Cold, instance=Part-1-1
    3,    8,   28,   42,   53,  363,  542,  543,  544,  811, 1195, 1197, 1198, 1370, 1405, 1807
 1823, 1857, 1948, 1960, 2175, 2309, 2352, 2389, 2841, 2989, 2995, 3009
*Nset, nset=Set-Hot, instance=Part-1-1
   3,   4,   6,   9,  10,  12,  14,  16,  18,  20,  22,  23,  61,  62,  63,  64
 130, 164, 233, 234, 235, 236, 270, 338, 339, 340, 374, 407, 408, 409
*Elset, elset=Set-Hot, instance=Part-1-1
   16,   31,   38,   67,   93,   98,  547,  548,  608,  705,  851,  854,  859,  875, 1201, 1430
 1441, 1443, 1661, 1726, 1810, 1938, 2404, 2506, 2754, 2776, 2809, 3029
*Nset, nset=_PickedSet6, internal, instance=Part-1-1, generate
    1,  1071,     1
*Elset, elset=_PickedSet6, internal, instance=Part-1-1, generate
    1,  3109,     1
*Nset, nset=Set-OutSurf, instance=Part-1-1, generate
    1,  1020,     1
*Elset, elset=Set-OutSurf, instance=Part-1-1
    3,    6,    8,   11,   13,   15,   16,   17,   19,   23,   27,   28,   30,   31,   33,   34
   36,   37,   38,   39,   41,   42,   43,   47,   49,   53,   54,   55,   59,   61,   64,   65
   67,   68,   69,   71,   72,   74,   76,   77,   79,   83,   85,   87,   90,   93,   96,   98
  101,  102,  104,  105,  106,  107,  109,  110,  113,  114,  116,  122,  124,  126,  127,  128
  130,  132,  134,  135,  139,  140,  141,  142,  144,  145,  149,  151,  152,  153,  155,  157
  158,  159,  160,  162,  164,  166,  167,  168,  171,  172,  175,  176,  177,  178,  181,  184
  185,  186,  187,  190,  191,  192,  196,  197,  201,  203,  204,  207,  208,  212,  213,  215
  217,  218,  223,  227,  228,  230,  233,  234,  236,  237,  238,  239,  240,  241,  242,  244
  245,  246,  249,  251,  252,  255,  260,  264,  265,  266,  269,  271,  273,  275,  276,  277
  281,  282,  283,  287,  289,  292,  293,  294,  296,  297,  300,  302,  303,  306,  307,  308
  309,  311,  312,  315,  316,  317,  319,  321,  322,  325,  326,  331,  333,  335,  336,  344
  345,  348,  350,  352,  355,  357,  359,  360,  362,  363,  370,  371,  372,  373,  374,  377
  383,  386,  388,  389,  394,  395,  396,  398,  400,  402,  404,  405,  407,  408,  411,  412
  413,  414,  417,  419,  422,  423,  428,  429,  431,  433,  436,  438,  439,  440,  443,  445
  449,  450,  452,  453,  454,  455,  458,  459,  460,  462,  467,  468,  470,  473,  474,  475
  477,  478,  479,  480,  483,  487,  488,  489,  490,  491,  492,  496,  500,  501,  503,  505
  506,  507,  509,  510,  515,  518,  521,  525,  526,  529,  530,  531,  533,  534,  536,  537
  538,  539,  540,  542,  543,  544,  545,  547,  548,  549,  551,  552,  553,  554,  557,  559
  560,  561,  562,  563,  564,  565,  566,  567,  568,  569,  571,  572,  573,  574,  575,  576
  577,  578,  579,  580,  581,  582,  583,  584,  586,  588,  590,  591,  594,  595,  597,  598
** ... 100 like lines cut
*End Assembly
** 
** MATERIALS
** 
*Material, name=Aluminum
*Conductivity
237.,
*Density
2700.,
*Elastic
 7e+10, 0.35
*Specific Heat
900.,
** 
** PREDEFINED FIELDS
** 
** Name: Predefined Field-1   Type: Temperature
*Initial Conditions, type=TEMPERATURE
_PickedSet6, 500.
** ----------------------------------------------------------------
** 
** STEP: Step-1
** 
*Step, name=Step-1, inc=100000
*Heat Transfer, end=PERIOD, deltmx=100.
0.1, 300., 0.0003, 10, 
*controls, parameter=time incrementation
 50, 60, 70, 80, 90, 100, 110, 120, 130, 10, 150
** 
** BOUNDARY CONDITIONS
** 
** Name: BC-1 Type: Temperature
*Boundary
Set-Hot, 11, 11, 3000.
** 
** OUTPUT REQUESTS
** 
*Restart, write, frequency=0
** 
** FIELD OUTPUT: F-Output-1
** 
*Output, field, number interval=10
*Node output
NT
*NODE FILE, GLOBAL=NO, nset=Set-OutSurf
NT
*Output, history, frequency=0
*End Step
