&HEAD CHID='Ibeam_demo', TITLE='Demo of Abaqus >> Matlab freeBoundary, created by Ibeam_demo.m' /
  
&MESH IJK=32,32,32, XB=-.5,.5,-.5,.5,0,1/
  
&TIME T_END=10./
  
&MISC IMMERSED_BOUNDARY_METHOD=1 /
  
&SURF ID='hot', COLOR='RED', CONVECTIVE_HEAT_FLUX=1000./
&SURF ID='cold', COLOR='BLUE'/
  
&VENT MB='XMIN', SURF_ID='OPEN'/
&VENT MB='XMAX', SURF_ID='OPEN'/
&VENT MB='YMIN', SURF_ID='OPEN'/
&VENT MB='YMAX', SURF_ID='OPEN'/
&VENT MB='ZMAX', SURF_ID='OPEN'/
&VENT XB=-.2,.2,-.2,.2,0,0, SURF_ID='hot'/
  
&MATL ID='my solid', DENSITY=1000., CONDUCTIVITY=1., SPECIFIC_HEAT=1. /
  
&SLCF PBY=0, QUANTITY='TEMPERATURE', VECTOR=.TRUE. /
&SLCF PBX=0, QUANTITY='TEMPERATURE', VECTOR=.TRUE. /
  
&BNDE QUANTITY='WALL TEMPERATURE' /
  
&VERT X=0.05,0.02,1 /
&VERT X=0.05,0.18,1 /
&VERT X=0.05,0.18,0 /
&VERT X=0.05,0.02,0 /
&VERT X=0,0.18,1 /
&VERT X=0,0.18,0 /
&VERT X=0.12,0.18,1 /
&VERT X=0.07,0.18,1 /
&VERT X=0.07,0.18,0 /
&VERT X=0.12,0.18,0 /
&VERT X=0.07,0.02,1 /
&VERT X=0.07,0.02,0 /
&VERT X=0.12,0.02,1 /
&VERT X=0.12,0.02,0 /
&VERT X=0.12,0,1 /
&VERT X=0.12,0,0 /
&VERT X=0,0,1 /
&VERT X=0,0,0 /
&VERT X=0,0.02,1 /
&VERT X=0,0.02,0 /
! ... 1051 like lines cut
  
&FACE N=17,305,373, SURF_ID='cold' /
&FACE N=533,538,537, SURF_ID='cold' /
&FACE N=27,197,28, SURF_ID='cold' /
&FACE N=73,541,72, SURF_ID='cold' /
&FACE N=571,566,567, SURF_ID='cold' /
&FACE N=727,728,732, SURF_ID='cold' /
&FACE N=22,130,6, SURF_ID='cold' /
&FACE N=6,604,129, SURF_ID='cold' /
&FACE N=1020,409,1019, SURF_ID='cold' /
&FACE N=448,28,29, SURF_ID='cold' /
&FACE N=637,132,8, SURF_ID='cold' /
&FACE N=8,2,197, SURF_ID='cold' /
&FACE N=23,409,1020, SURF_ID='cold' /
&FACE N=23,164,409, SURF_ID='cold' /
&FACE N=410,165,10, SURF_ID='cold' /
&FACE N=410,10,23, SURF_ID='cold' /
&FACE N=892,18,338, SURF_ID='cold' /
&FACE N=1020,1016,1017, SURF_ID='cold' /
&FACE N=18,20,374, SURF_ID='cold' /
&FACE N=337,372,20, SURF_ID='cold' /
! ... 2016 like lines cut
  
&VOLU N=697,43,147,44, MATL_ID='my solid' /
&VOLU N=95,893,1021,1022, MATL_ID='my solid' /
&VOLU N=1021,17,305,373, MATL_ID='my solid' /
&VOLU N=1023,663,470,469, MATL_ID='my solid' /
&VOLU N=473,668,1023,664, MATL_ID='my solid' /
&VOLU N=533,538,1024,537, MATL_ID='my solid' /
&VOLU N=1025,448,28,637, MATL_ID='my solid' /
&VOLU N=1025,27,197,28, MATL_ID='my solid' /
&VOLU N=570,566,1026,759, MATL_ID='my solid' /
&VOLU N=1027,560,556,749, MATL_ID='my solid' /
&VOLU N=73,541,1028,72, MATL_ID='my solid' /
&VOLU N=1028,1024,74,223, MATL_ID='my solid' /
&VOLU N=758,571,566,567, MATL_ID='my solid' /
&VOLU N=1024,223,533,74, MATL_ID='my solid' /
&VOLU N=1024,727,728,732, MATL_ID='my solid' /
&VOLU N=1029,22,130,6, MATL_ID='my solid' /
&VOLU N=1029,6,604,129, MATL_ID='my solid' /
&VOLU N=1029,130,407,604, MATL_ID='my solid' /
&VOLU N=1020,1019,409,9, MATL_ID='my solid' /
&VOLU N=1029,129,604,406, MATL_ID='my solid' /
! ... 3089 like lines cut
  
&TAIL /
