&HEAD CHID='compgeom_demo_2', TITLE='Demo of one-way coupling to ANSYS' /
  
&MESH IJK=64,64,64, XB=-2,2,-2,2,0,4 /


#&MESH IJK=256,128,128, XB=-2,2,-2,0,0,2 /
#&MESH IJK=256,128,128, XB=-2,2,0,2,0,2 /
#&MESH IJK=256,128,128, XB=-2,2,-2,0,2,4 /
#&MESH IJK=256,128,128, XB=-2,2,0,2,2,4 /

#&MESH IJK=64,32,32, XB=-2,2,-2,0,0,2 /
#&MESH IJK=64,32,32, XB=-2,2,0,2,0,2 /
#&MESH IJK=64,32,32, XB=-2,2,-2,0,2,4 /
#&MESH IJK=64,32,32, XB=-2,2,0,2,2,4 /

  
&TIME T_END=0.0/
&MISC CC_IBM=.TRUE./
  
&REAC FUEL='PROPANE', SOOT_YIELD=0.01/
  
&VENT XB=-1,1,-1,1,0,0, SURF_ID='fire' /
&VENT MB='ZMAX', SURF_ID='OPEN' /
&VENT MB='YMIN', SURF_ID='OPEN' /
&VENT MB='YMAX', SURF_ID='OPEN' /
&VENT MB='XMIN', SURF_ID='OPEN' /
&VENT MB='XMAX', SURF_ID='OPEN' /
  
&SURF ID='fire', HRRPUA=1000., COLOR='RED'/
&SURF ID='sphere', COLOR='GREEN', MATL_ID='sphere', THICKNESS=0.1/
&MATL ID='sphere', DENSITY=1, CONDUCTIVITY=1, SPECIFIC_HEAT=1/
  
&SLCF PBY=0, QUANTITY='VELOCITY', VECTOR=.TRUE. /
&SLCF PBY=0, QUANTITY='TEMPERATURE', CELL_CENTERED=.TRUE. /
&SLCF PBY=0, QUANTITY='DIVERGENCE', CELL_CENTERED=.TRUE. /
&SLCF PBY=0, QUANTITY='MASS FRACTION', SPEC_ID='PROPANE', CELL_CENTERED=.TRUE. /
  
&BNDE QUANTITY='GAS TEMPERATURE' /
  
&GEOM ID='FEM_MESH', MATL_ID='sphere'
VERTS=
   0.000,   0.000,   1.000,
   1.000,   0.000,   2.000,
   0.000,   0.000,   3.000,
  -1.000,   0.000,   2.000,
   0.188,   0.000,   1.018,
   0.369,   0.000,   1.071,
   0.545,   0.000,   1.162,
   0.700,   0.000,   1.286,
   0.827,   0.000,   1.438,
   0.922,   0.000,   1.613,
   0.980,   0.000,   1.802,
   0.982,   0.000,   2.188,
   0.929,   0.000,   2.369,
   0.838,   0.000,   2.545,
   0.714,   0.000,   2.700,
   0.562,   0.000,   2.827,
   0.387,   0.000,   2.922,
   0.198,   0.000,   2.980,
  -0.188,   0.000,   1.018,
  -0.369,   0.000,   1.071,
! ... 735 like lines cut
VOLUS=
     332,     333,     334,     335,                                          
     332,     333,     336,     334,                                          
     332,     337,     334,     338,                                          
     332,     336,     338,     334,                                          
     332,     337,     335,     334,                                          
     339,     340,     341,     342,                                          
     332,     335,     177,     178,                                          
     338,     334,     343,     337,                                          
     344,     338,     334,     343,                                          
     337,     345,     346,     334,                                          
     332,     333,     347,     348,                                          
     337,     345,     157,     346,                                          
     332,     178,     348,     347,                                          
     337,     338,     168,     157,                                          
     333,     349,     350,     351,                                          
     352,     289,     294,     305,                                          
     353,     334,     336,     333,                                          
     333,     335,     349,     334,                                          
     333,     354,     349,     335,                                          
     333,     348,     355,     347,                                          
! ... 3379 like lines cut
FACES=
     289,     294,     305,                                           
     215,     185,     216,                                           
     274,     248,     249,                                           
     271,     272,     293,                                           
     209,       6,       7,                                           
     243,     242,     214,                                           
     330,     326,     329,                                           
     318,     331,     317,                                           
      14,     201,      13,                                           
      18,      49,      33,                                           
     317,     321,     309,                                           
      45,      46,      21,                                           
     115,      87,      88,                                           
      46,      76,      47,                                           
     320,     326,     327,                                           
      66,      94,      95,                                           
     171,     179,     172,                                           
     280,     255,     254,                                           
     306,     308,     313,                                           
      60,      89,      88,                                           
! ... 638 like lines cut
SURF_ID='surf1'/


&TAIL /
