&HEAD CHID='Test_3_4cm', TITLE='Methane burner in a cabinet' /

&MESH IJK=12,12,12, XB=-0.48,0.0,-0.48,0.0,0.0,0.48, MULT_ID='mesh' /
&MULT ID='mesh', DX=0.48, DY=0.48, DZ=0.48, I_LOWER=-1, I_UPPER=2, J_LOWER=-1, J_UPPER=2, K_UPPER=4 /

&TIME T_END=1200., TIME_SHRINK_FACTOR=1 /

&MATL ID            = 'STEEL'
      SPECIFIC_HEAT = 0.465
      CONDUCTIVITY  = 54.
      DENSITY       = 7833. /

&SURF ID            = 'STEEL PLATE'
      MATL_ID       = 'STEEL'
      DEFAULT       = .TRUE.
      THICKNESS     = 0.003
      COLOR         = 'GRAY 40' /

&PRES VELOCITY_TOLERANCE=0.002, MAX_PRESSURE_ITERATIONS=50 /

&VENT MB='XMIN', SURF_ID='OPEN' /
&VENT MB='XMAX', SURF_ID='OPEN' /
&VENT MB='YMIN', SURF_ID='OPEN' /
&VENT MB='YMAX', SURF_ID='OPEN' /
&VENT MB='ZMAX', SURF_ID='OPEN' /


&REAC FUEL='METHANE', RADIATIVE_FRACTION=0., N_SIMPLE_CHEMISTRY_REACTIONS=2, AUTO_IGNITION_TEMPERATURE=540.   AIT_EXCLUSION_ZONE=0.28,0.60,-0.52,-0.20,0.52,0.60 /

&SURF ID='FIRE', HRRPUA=488.3, COLOR='ORANGE', TMP_FRONT=300., RAMP_Q='fire ramp' /
&RAMP ID='fire ramp', T=   0., F=0.000 /
&RAMP ID='fire ramp', T=  10., F=2.000 /
&RAMP ID='fire ramp', T= 240., F=2.000 /
&RAMP ID='fire ramp', T= 250., F=3.000 /
&RAMP ID='fire ramp', T= 510., F=3.000 /
&RAMP ID='fire ramp', T= 520., F=4.000 /
&RAMP ID='fire ramp', T= 920., F=4.000 /
&RAMP ID='fire ramp', T= 930., F=2.000 /
&RAMP ID='fire ramp', T=1170., F=2.000 /
&RAMP ID='fire ramp', T=1200., F=0.000 /

&OBST XB= 0.28,0.60,-0.52,-0.20,0.32,0.52, SURF_IDS='FIRE','STEEL PLATE','STEEL PLATE' /

&OBST XB=-0.92, 0.92,-0.72,-0.68, 0.00, 2.28 / Front
&OBST XB=-0.92, 0.92, 0.68, 0.72, 0.00, 2.28 / Back
&OBST XB=-0.92,-0.88,-0.68, 0.68, 0.00, 2.28 / Left
&OBST XB= 0.88, 0.92,-0.68, 0.68, 0.00, 2.28 / Right
&OBST XB=-0.92, 0.92,-0.72, 0.72, 2.28, 2.32 / Top

&VENT XB=-0.88,-0.00,-0.68,-0.68,1.52,1.76, ID='Inside Upper Left Vent',  SURF_ID='STEEL PLATE' /
&VENT XB=-0.88,-0.00,-0.72,-0.72,1.52,1.76, ID='Outside Upper Left Vent', SURF_ID='STEEL PLATE' /
&HVAC ID='Upper Left Vent', TYPE_ID='LEAK', VENT_ID='Inside Upper Left Vent', VENT2_ID='Outside Upper Left Vent', AREA=0.016,
      LEAK_PRESSURE_EXPONENT=0.6, LEAK_REFERENCE_PRESSURE=1., DISCHARGE_COEFFICIENT=0.61 /
&VENT XB=-0.88,-0.00,-0.68,-0.68,0.52,0.76, ID='Inside Lower Left Vent',  SURF_ID='STEEL PLATE' /
&VENT XB=-0.88,-0.00,-0.72,-0.72,0.52,0.76, ID='Outside Lower Left Vent', SURF_ID='STEEL PLATE' /
&HVAC ID='Lower Left Vent', TYPE_ID='LEAK', VENT_ID='Inside Lower Left Vent', VENT2_ID='Outside Lower Left Vent', AREA=0.016,
      LEAK_PRESSURE_EXPONENT=0.6, LEAK_REFERENCE_PRESSURE=1., DISCHARGE_COEFFICIENT=0.61 /

&VENT XB=-0.88,-0.88,-0.68, 0.68, 0.08, 0.72, ID='Left-Front-Inside', SURF_ID='STEEL PLATE' /
&VENT XB=-0.92,-0.92,-0.68, 0.68, 0.08, 0.72, ID='Left-Front-Outside', SURF_ID='STEEL PLATE' /
&HVAC ID='Left-Front Leak', TYPE_ID='LEAK', VENT_ID='Left-Front-Inside', VENT2_ID='Left-Front-Outside', AREA=0.020,
      LEAK_PRESSURE_EXPONENT=0.6, LEAK_REFERENCE_PRESSURE=1., DISCHARGE_COEFFICIENT=0.61 /
&VENT XB= 0.88, 0.88,-0.68, 0.68, 0.08, 0.72, ID='Right-Front-Inside', SURF_ID='STEEL PLATE' /
&VENT XB= 0.92, 0.92,-0.68, 0.68, 0.08, 0.72, ID='Right-Front-Outside', SURF_ID='STEEL PLATE' /
&HVAC ID='Right-Front Leak', TYPE_ID='LEAK', VENT_ID='Right-Front-Inside', VENT2_ID='Right-Front-Outside', AREA=0.020,
      LEAK_PRESSURE_EXPONENT=0.6, LEAK_REFERENCE_PRESSURE=1., DISCHARGE_COEFFICIENT=0.61 /
&VENT XB=-0.88,-0.88,-0.68, 0.68, 1.72, 2.04, ID='Left-Back-Inside', SURF_ID='STEEL PLATE' /
&VENT XB=-0.92,-0.92,-0.68, 0.68, 1.72, 2.04, ID='Left-Back-Outside', SURF_ID='STEEL PLATE' /
&HVAC ID='Left-Back Leak', TYPE_ID='LEAK', VENT_ID='Left-Back-Inside', VENT2_ID='Left-Back-Outside', AREA=0.010,
      LEAK_PRESSURE_EXPONENT=0.6, LEAK_REFERENCE_PRESSURE=1., DISCHARGE_COEFFICIENT=0.61 /
&VENT XB= 0.88, 0.88,-0.68, 0.68, 1.72, 2.04, ID='Right-Back-Inside', SURF_ID='STEEL PLATE' /
&VENT XB= 0.92, 0.92,-0.68, 0.68, 1.72, 2.04, ID='Right-Back-Outside', SURF_ID='STEEL PLATE' /
&HVAC ID='Right-Back Leak', TYPE_ID='LEAK', VENT_ID='Right-Back-Inside', VENT2_ID='Right-Back-Outside', AREA=0.010,
      LEAK_PRESSURE_EXPONENT=0.6, LEAK_REFERENCE_PRESSURE=1., DISCHARGE_COEFFICIENT=0.61 /

 SURF ID='BLOW', COLOR='BLUE', VOLUME_FLOW=-0.125, TAU_V=200. /
 VENT XB=-0.08, 0.08,-0.08,0.08, 0.0, 0.0, SURF_ID='BLOW' /
 DEVC ID='Vdot', QUANTITY='NORMAL VELOCITY', XB=-0.08, 0.08,-0.08,0.08, 0.0, 0.0, SPATIAL_STATISTIC='SURFACE INTEGRAL',
      CONVERSION_FACTOR=3600. /

&DUMP DT_DEVC=10., DT_HRR=10. /

&SLCF PBY=0.03, QUANTITY='TEMPERATURE', VECTOR=.TRUE. /
&SLCF PBY=0.03, QUANTITY='PRESSURE', CELL_CENTERED=.TRUE. /
&SLCF PBY=0.03, QUANTITY='VOLUME FRACTION', SPEC_ID='OXYGEN', CELL_CENTERED=.TRUE. /
&SLCF PBY=0.03, QUANTITY='VOLUME FRACTION', SPEC_ID='CARBON DIOXIDE', CELL_CENTERED=.TRUE. /
&SLCF PBY=0.03, QUANTITY='VOLUME FRACTION', SPEC_ID='CARBON MONOXIDE', CELL_CENTERED=.TRUE. /
&SLCF PBY=0.03, QUANTITY='VOLUME FRACTION', SPEC_ID='METHANE', CELL_CENTERED=.TRUE. /
&SLCF PBY=0.03, QUANTITY='MASS FRACTION', SPEC_ID='SOOT', CELL_CENTERED=.TRUE. /
&SLCF PBY=0.03, QUANTITY='HRRPUV', CELL_CENTERED=.TRUE. /
&SLCF PBY=0.03, QUANTITY='TEMPERATURE', CELL_CENTERED=.TRUE. /
&SLCF PBY=0.03, QUANTITY='PRESSURE', CELL_CENTERED=.TRUE. /

&SLCF PBX=0.45, QUANTITY='TEMPERATURE', VECTOR=.TRUE. /
&SLCF PBX=0.45, QUANTITY='PRESSURE', CELL_CENTERED=.TRUE. /
&SLCF PBX=0.45, QUANTITY='VOLUME FRACTION', SPEC_ID='OXYGEN', CELL_CENTERED=.TRUE. /
&SLCF PBX=0.45, QUANTITY='VOLUME FRACTION', SPEC_ID='CARBON DIOXIDE', CELL_CENTERED=.TRUE. /
&SLCF PBX=0.45, QUANTITY='VOLUME FRACTION', SPEC_ID='CARBON MONOXIDE', CELL_CENTERED=.TRUE. /
&SLCF PBX=0.45, QUANTITY='VOLUME FRACTION', SPEC_ID='METHANE', CELL_CENTERED=.TRUE. /
&SLCF PBX=0.45, QUANTITY='MASS FRACTION', SPEC_ID='SOOT', CELL_CENTERED=.TRUE. /
&SLCF PBX=0.45, QUANTITY='HRRPUV', CELL_CENTERED=.TRUE. /
&SLCF PBX=0.45, QUANTITY='TEMPERATURE', CELL_CENTERED=.TRUE. /
&SLCF PBX=0.45, QUANTITY='PRESSURE', CELL_CENTERED=.TRUE. /

&BNDF QUANTITY='WALL TEMPERATURE', CELL_CENTERED=.TRUE. /

&DEVC ID='HRR_ideal', XB= 0.28,0.60,-0.52,-0.20,0.50,0.55, QUANTITY='MASS FLUX', SPEC_ID='METHANE',
      SPATIAL_STATISTIC='SURFACE INTEGRAL', CONVERSION_FACTOR=50000, UNITS='kW' /
&DEVC ID='HRR_actual',XB=-2.00,2.00,-2.00,2.000,0.00,3.00, QUANTITY='HRRPUV',
      SPATIAL_STATISTIC='VOLUME INTEGRAL', TEMPORAL_STATISTIC='SMOOTHED', SMOOTHING_FACTOR=0.99 /
&DEVC ID='O2',       XYZ=-0.60,-0.50,2.00, QUANTITY='VOLUME FRACTION', DRY=T, SPEC_ID='OXYGEN' /
&DEVC ID='CO2',      XYZ=-0.60,-0.50,2.00, QUANTITY='VOLUME FRACTION', DRY=T, SPEC_ID='CARBON DIOXIDE' /
&DEVC ID='CO',       XYZ=-0.60,-0.50,2.00, QUANTITY='VOLUME FRACTION', DRY=T, SPEC_ID='CARBON MONOXIDE' /
&DEVC ID='TC-1',     XYZ=-0.60,-0.20,2.00, QUANTITY='THERMOCOUPLE' /
&DEVC ID='TC-2',     XYZ=-0.60,-0.20,1.40, QUANTITY='THERMOCOUPLE' /
&DEVC ID='TC-3',     XYZ=-0.60,-0.20,0.50, QUANTITY='THERMOCOUPLE' /
&DEVC ID='TC-4',     XYZ= 0.60,-0.10,2.00, QUANTITY='THERMOCOUPLE' /
&DEVC ID='TC-5',     XYZ= 0.60,-0.10,1.40, QUANTITY='THERMOCOUPLE' /
&DEVC ID='TC-6',     XYZ= 0.60,-0.10,0.50, QUANTITY='THERMOCOUPLE' /
&DEVC ID='TC-8',     XYZ= 0.40,-0.72,1.70, QUANTITY='WALL TEMPERATURE', IOR=-2 /
&DEVC ID='TC-9',     XYZ= 0.40,-0.72,0.80, QUANTITY='WALL TEMPERATURE', IOR=-2 /
&DEVC ID='CH4',      XYZ=-0.60,-0.50,2.00, QUANTITY='VOLUME FRACTION', DRY=T, SPEC_ID='METHANE' /
&DEVC ID='SOOT',     XYZ=-0.60,-0.50,2.00, QUANTITY='MASS FRACTION',   SPEC_ID='SOOT' /
&DEVC ID='PRESSURE', XYZ=-0.60,-0.50,2.00, QUANTITY='PRESSURE' /

&TAIL/

