&HEAD CHID='Test_29_4cm', TITLE='Methane burner in a cabinet' /

&MESH IJK=12,12,12, XB=-0.48,0.0,-0.48,0.0,0.0,0.48, MULT_ID='mesh' /
&MULT ID='mesh', DX=0.48, DY=0.48, DZ=0.48, I_LOWER=-1, I_UPPER=2, J_LOWER=-1, J_UPPER=2, K_UPPER=4 /

&TIME T_END=1200., TIME_SHRINK_FACTOR=1 /

&MATL ID            = 'STEEL'
      SPECIFIC_HEAT = 0.465
      CONDUCTIVITY  = 54.
      DENSITY       = 7833. /

&SURF ID            = 'STEEL PLATE'
      MATL_ID       = 'STEEL'
      DEFAULT       = .TRUE.
      THICKNESS     = 0.003
      COLOR         = 'GRAY 40' /

&PRES VELOCITY_TOLERANCE=0.002, MAX_PRESSURE_ITERATIONS=50 /

&VENT MB='XMIN', SURF_ID='OPEN' /
&VENT MB='XMAX', SURF_ID='OPEN' /
&VENT MB='YMIN', SURF_ID='OPEN' /
&VENT MB='YMAX', SURF_ID='OPEN' /
&VENT MB='ZMAX', SURF_ID='OPEN' /


&REAC FUEL='METHANE', RADIATIVE_FRACTION=0., N_SIMPLE_CHEMISTRY_REACTIONS=2, AUTO_IGNITION_TEMPERATURE=540.   AIT_EXCLUSION_ZONE=-0.60,-0.28, 0.24, 0.56,0.50,0.56 /

&SURF ID='FIRE', HRRPUA=488.3, COLOR='ORANGE', TMP_FRONT=300., RAMP_Q='fire ramp' /
&RAMP ID='fire ramp', T=   0., F=0.000 /
&RAMP ID='fire ramp', T=  10., F=1.000 /
&RAMP ID='fire ramp', T= 190., F=1.000 /
&RAMP ID='fire ramp', T= 200., F=2.000 /
&RAMP ID='fire ramp', T= 330., F=2.000 /
&RAMP ID='fire ramp', T= 340., F=3.100 /
&RAMP ID='fire ramp', T= 460., F=3.100 /
&RAMP ID='fire ramp', T= 470., F=3.900 /
&RAMP ID='fire ramp', T= 610., F=3.900 /
&RAMP ID='fire ramp', T= 620., F=5.000 /
&RAMP ID='fire ramp', T= 810., F=5.000 /
&RAMP ID='fire ramp', T= 820., F=5.950 /
&RAMP ID='fire ramp', T= 920., F=5.950 /
&RAMP ID='fire ramp', T= 930., F=0.000 /

&OBST XB=-0.60,-0.28, 0.24, 0.56,0.32,0.52, SURF_IDS='FIRE','STEEL PLATE','STEEL PLATE' /

&OBST XB=-0.88, 0.88,-0.80,-0.76, 0.00, 2.28 / Front
&OBST XB=-0.88, 0.88, 0.76, 0.80, 0.00, 2.28 / Back
&OBST XB=-0.88,-0.84,-0.76, 0.76, 0.00, 2.28 / Left
&OBST XB= 0.84, 0.88,-0.76, 0.76, 0.00, 2.28 / Right
&OBST XB=-0.88, 0.88,-0.80, 0.80, 2.28, 2.32 / Top

&VENT XB=-0.84,-0.84,-0.68, 0.68, 0.08, 0.72, ID='Inside Left Lower Leakage', SURF_ID='STEEL PLATE' /
&VENT XB=-0.88,-0.88,-0.68, 0.68, 0.08, 0.72, ID='Outside Left Lower Leakage', SURF_ID='STEEL PLATE' /
&HVAC ID='Left Lower Leakage', TYPE_ID='LEAK', VENT_ID='Inside Left Lower Leakage', VENT2_ID='Outside Left Lower Leakage', AREA=0.0275,
      LEAK_PRESSURE_EXPONENT=0.6, LEAK_REFERENCE_PRESSURE=1., DISCHARGE_COEFFICIENT=0.61 /
&VENT XB=-0.84,-0.84,-0.68, 0.68, 1.68, 2.12, ID='Inside Left Upper Leakage', SURF_ID='STEEL PLATE' /
&VENT XB=-0.88,-0.88,-0.68, 0.68, 1.68, 2.12, ID='Outside Left Upper Leakage', SURF_ID='STEEL PLATE' /
&HVAC ID='Left Upper Leakage', TYPE_ID='LEAK', VENT_ID='Inside Left Upper Leakage', VENT2_ID='Outside Left Upper Leakage', AREA=0.0275,
      LEAK_PRESSURE_EXPONENT=0.6, LEAK_REFERENCE_PRESSURE=1., DISCHARGE_COEFFICIENT=0.61 /
&VENT XB= 0.84, 0.84,-0.68, 0.68, 0.08, 0.72, ID='Inside Right Lower Leakage', SURF_ID='STEEL PLATE' /
&VENT XB= 0.88, 0.88,-0.68, 0.68, 0.08, 0.72, ID='Outside Right Lower Leakage', SURF_ID='STEEL PLATE' /
&HVAC ID='Right Lower Leakage', TYPE_ID='LEAK', VENT_ID='Inside Right Lower Leakage', VENT2_ID='Outside Right Lower Leakage', AREA=0.0275,
      LEAK_PRESSURE_EXPONENT=0.6, LEAK_REFERENCE_PRESSURE=1., DISCHARGE_COEFFICIENT=0.61 /
&VENT XB= 0.84, 0.84,-0.68, 0.68, 1.68, 2.12, ID='Inside Right Upper Leakage', SURF_ID='STEEL PLATE' /
&VENT XB= 0.88, 0.88,-0.68, 0.68, 1.68, 2.12, ID='Outside Right Upper Leakage', SURF_ID='STEEL PLATE' /
&HVAC ID='Right Upper Leakage', TYPE_ID='LEAK', VENT_ID='Inside Right Upper Leakage', VENT2_ID='Outside Right Upper Leakage', AREA=0.0275,
      LEAK_PRESSURE_EXPONENT=0.6, LEAK_REFERENCE_PRESSURE=1., DISCHARGE_COEFFICIENT=0.61 /

 SURF ID='BLOW', COLOR='BLUE', VOLUME_FLOW=-0.125, TAU_V=200. /
 VENT XB=-0.08, 0.08,-0.08,0.08, 0.0, 0.0, SURF_ID='BLOW' /
 DEVC ID='Vdot', QUANTITY='NORMAL VELOCITY', XB=-0.08, 0.08,-0.08,0.08, 0.0, 0.0, SPATIAL_STATISTIC='SURFACE INTEGRAL',
      CONVERSION_FACTOR=3600. /

&DUMP DT_DEVC=10., DT_HRR=10. /

&SLCF PBY=0.03, QUANTITY='TEMPERATURE', VECTOR=.TRUE. /
&SLCF PBY=0.03, QUANTITY='PRESSURE', CELL_CENTERED=.TRUE. /
&SLCF PBY=0.03, QUANTITY='VOLUME FRACTION', SPEC_ID='OXYGEN', CELL_CENTERED=.TRUE. /
&SLCF PBY=0.03, QUANTITY='VOLUME FRACTION', SPEC_ID='CARBON DIOXIDE', CELL_CENTERED=.TRUE. /
&SLCF PBY=0.03, QUANTITY='VOLUME FRACTION', SPEC_ID='CARBON MONOXIDE', CELL_CENTERED=.TRUE. /
&SLCF PBY=0.03, QUANTITY='VOLUME FRACTION', SPEC_ID='METHANE', CELL_CENTERED=.TRUE. /
&SLCF PBY=0.03, QUANTITY='MASS FRACTION', SPEC_ID='SOOT', CELL_CENTERED=.TRUE. /
&SLCF PBY=0.03, QUANTITY='HRRPUV', CELL_CENTERED=.TRUE. /
&SLCF PBY=0.03, QUANTITY='TEMPERATURE', CELL_CENTERED=.TRUE. /
&SLCF PBY=0.03, QUANTITY='PRESSURE', CELL_CENTERED=.TRUE. /

&BNDF QUANTITY='WALL TEMPERATURE', CELL_CENTERED=.TRUE. /

&DEVC ID='HRR_ideal', XB=-0.60,-0.28, 0.24, 0.56,0.50,0.56, QUANTITY='MASS FLUX', SPEC_ID='METHANE',
      SPATIAL_STATISTIC='SURFACE INTEGRAL', CONVERSION_FACTOR=50000, UNITS='kW' /
&DEVC ID='HRR_actual',XB=-2.00,2.00,-2.00,2.000,0.00,3.00, QUANTITY='HRRPUV',
      SPATIAL_STATISTIC='VOLUME INTEGRAL', TEMPORAL_STATISTIC='SMOOTHED', SMOOTHING_FACTOR=0.99 /
&DEVC ID='O2',       XYZ=-0.60,-0.50,2.00, QUANTITY='VOLUME FRACTION', DRY=T, SPEC_ID='OXYGEN' /
&DEVC ID='CO2',      XYZ=-0.60,-0.50,2.00, QUANTITY='VOLUME FRACTION', DRY=T, SPEC_ID='CARBON DIOXIDE' /
&DEVC ID='CO',       XYZ=-0.60,-0.50,2.00, QUANTITY='VOLUME FRACTION', DRY=T, SPEC_ID='CARBON MONOXIDE' /
&DEVC ID='TC-1',     XYZ=-0.60,-0.20,2.00, QUANTITY='THERMOCOUPLE' /
&DEVC ID='TC-2',     XYZ=-0.60,-0.20,1.40, QUANTITY='THERMOCOUPLE' /
&DEVC ID='TC-3',     XYZ=-0.60,-0.20,0.50, QUANTITY='THERMOCOUPLE' /
&DEVC ID='TC-4',     XYZ= 0.60,-0.10,2.00, QUANTITY='THERMOCOUPLE' /
&DEVC ID='TC-5',     XYZ= 0.60,-0.10,1.40, QUANTITY='THERMOCOUPLE' /
&DEVC ID='TC-6',     XYZ= 0.60,-0.10,0.50, QUANTITY='THERMOCOUPLE' /
&DEVC ID='TC-8',     XYZ= 0.40,-0.80,1.70, QUANTITY='WALL TEMPERATURE', IOR=-2 /
&DEVC ID='TC-9',     XYZ= 0.40,-0.80,0.80, QUANTITY='WALL TEMPERATURE', IOR=-2 /
&DEVC ID='CH4',      XYZ=-0.60,-0.50,2.00, QUANTITY='VOLUME FRACTION', DRY=T, SPEC_ID='METHANE' /
&DEVC ID='SOOT',     XYZ=-0.60,-0.50,2.00, QUANTITY='MASS FRACTION',   SPEC_ID='SOOT' /
&DEVC ID='PRESSURE', XYZ=-0.60,-0.50,2.00, QUANTITY='PRESSURE' /

&TAIL/

