&HEAD CHID='cabinet_12', TITLE='Large cabinet, Test 12' /

&MESH IJK=36,36,38, XB=3.667,5.5005,0.0,1.75,0.0,1.9, MULT_ID='fine mesh' /
&MULT ID='fine mesh', DX=1.8335, DY=1.75, DZ=1.9, I_UPPER=1, J_UPPER=1, K_UPPER=1 /

&MESH IJK=36,36,38, XB=0.0,3.667,0.0,3.5,0.0,3.8, MULT_ID='south mesh' /
&MULT ID='south mesh', DX=7.334, I_UPPER=1 /

&MESH IJK=36,36,38, XB=0.0,3.667,0.0,3.5,0.0,3.8, MULT_ID='north mesh' /
&MULT ID='north mesh', DX=3.667, DY=3.5, I_UPPER=2, J_LOWER=1, J_UPPER=1 /

&TIME T_END=5400., TIME_SHRINK_FACTOR=5. /

&MISC TMPA=25. /

&MATL ID='GYPSUM BOARD'
      SPECIFIC_HEAT=1.1
      CONDUCTIVITY=0.16
      DENSITY=700.0/

&SURF ID='WALL',
      COLOR='BEIGE'
      DEFAULT=.TRUE.
      MATL_ID(1,1)='GYPSUM BOARD'
      BACKING='VOID'
      THICKNESS(1)=0.016 /

&MATL ID            = 'DUROCK'
      CONDUCTIVITY  = 0.15
      SPECIFIC_HEAT = 1.0
      DENSITY       = 925. /

&SURF ID            = 'HARDENED WALL'
      COLOR         = 'GRAY 95'
      MATL_ID       = 'DUROCK','GYPSUM BOARD'
      THICKNESS     = 0.006,0.016 /

&MATL ID            = 'STEEL'
      SPECIFIC_HEAT = 0.465
      CONDUCTIVITY  = 54.
      DENSITY       = 7833. /

&SURF ID            = 'STEEL PLATE'
      MATL_ID       = 'STEEL'
      THICKNESS     = 0.0028
      COLOR         = 'GRAY 50' /

&VENT XB=11.001,11.001,2.6,4.4,0.0,2.4, SURF_ID='OPEN' /
&VENT PBZ=0., SURF_ID='HARDENED WALL' /
&VENT XB=0.0,7.0,0.0,0.0,0.0,3.8, SURF_ID='HARDENED WALL' /
&VENT XB=0.0,0.0,0.0,3.0,0.0,3.8, SURF_ID='HARDENED WALL' /
&VENT XB=0.0,7.0,0.0,3.0,3.8,3.8, SURF_ID='HARDENED WALL' /

&MATL ID='INCONEL'
      EMISSIVITY=0.90
      DENSITY=8470.
      CONDUCTIVITY_RAMP='k_inc'
      SPECIFIC_HEAT_RAMP='c_inc' /

&RAMP ID='k_inc', T= 20., F=14.9 /
&RAMP ID='k_inc', T=100., F=15.9 /
&RAMP ID='k_inc', T=200., F=17.3 /
&RAMP ID='k_inc', T=300., F=19.0 /
&RAMP ID='k_inc', T=400., F=20.5 /
&RAMP ID='k_inc', T=500., F=22.1 /
&RAMP ID='k_inc', T=600., F=23.9 /
&RAMP ID='k_inc', T=700., F=25.7 /
&RAMP ID='k_inc', T=800., F=27.5 /

&RAMP ID='c_inc', T= 20., F=0.444 /
&RAMP ID='c_inc', T=100., F=0.465 /
&RAMP ID='c_inc', T=200., F=0.486 /
&RAMP ID='c_inc', T=300., F=0.502 /
&RAMP ID='c_inc', T=400., F=0.519 /
&RAMP ID='c_inc', T=500., F=0.536 /
&RAMP ID='c_inc', T=600., F=0.578 /
&RAMP ID='c_inc', T=700., F=0.595 /
&RAMP ID='c_inc', T=800., F=0.611 /
&RAMP ID='c_inc', T=900., F=0.628 /

&MATL ID='CERABLANKET'
      DENSITY=128.
      CONDUCTIVITY_RAMP='k_ins'
      SPECIFIC_HEAT = 1.13 /

&RAMP ID='k_ins', T=  20., F=0.06 /
&RAMP ID='k_ins', T= 260., F=0.06 /
&RAMP ID='k_ins', T= 400., F=0.10 /
&RAMP ID='k_ins', T= 600., F=0.15 /
&RAMP ID='k_ins', T= 800., F=0.20 /
&RAMP ID='k_ins', T=1000., F=0.27 /

&SURF ID = 'PLATE'
      COLOR = 'BLACK'
      MATL_ID = 'INCONEL','CERABLANKET','INCONEL'
      THICKNESS = 0.00079,0.0254,0.00079 /

&REAC FUEL='METHANE', SOOT_YIELD=0.001, RADIATIVE_FRACTION=0.25 /

&SURF ID='FIRE', HRRPUA=5555.5, COLOR='ORANGE', TMP_FRONT=300., RAMP_Q='fire ramp' /
&RAMP ID='fire ramp', T=   0., F=0.000 /
&RAMP ID='fire ramp', T=  30., F=0.050 /
&RAMP ID='fire ramp', T=1800., F=0.050 /
&RAMP ID='fire ramp', T=1830., F=0.100 /
&RAMP ID='fire ramp', T=2700., F=0.100 /
&RAMP ID='fire ramp', T=2730., F=0.200 /
&RAMP ID='fire ramp', T=3600., F=0.200 /
&RAMP ID='fire ramp', T=3630., F=0.400 /
&RAMP ID='fire ramp', T=4500., F=0.400 /
&RAMP ID='fire ramp', T=4530., F=0.000 /

&OBST XB= 5.30, 5.60, 2.00, 2.30,0.4,0.5, SURF_IDS='FIRE','STEEL PLATE','STEEL PLATE' /
&OBST XB= 4.10, 4.40, 2.00, 2.30,0.4,0.5, SURF_IDS='FIRE','STEEL PLATE','STEEL PLATE' /

&OBST XB= 4.20, 4.30, 1.40, 1.40,1.3,1.4, SURF_ID='PLATE' /
&OBST XB= 4.20, 4.30, 1.40, 1.40,0.7,0.8, SURF_ID='PLATE' /
&OBST XB= 3.50, 3.50, 2.10, 2.20,1.3,1.4, SURF_ID='PLATE' /
&OBST XB= 3.50, 3.50, 2.10, 2.20,0.7,0.8, SURF_ID='PLATE' /
&OBST XB= 6.20, 6.20, 2.10, 2.20,1.3,1.4, SURF_ID='PLATE' /
&OBST XB= 6.20, 6.20, 2.10, 2.20,0.7,0.8, SURF_ID='PLATE' /
&OBST XB= 4.20, 4.30, 2.90, 2.90,1.3,1.4, SURF_ID='PLATE' /
&OBST XB= 4.20, 4.30, 2.90, 2.90,0.7,0.8, SURF_ID='PLATE' /

&DEVC ID='TC-AG-01', XYZ=5.01,1.80,3.35, QUANTITY='THERMOCOUPLE' /
&DEVC ID='TC-AG-02', XYZ=5.21,1.80,3.35, QUANTITY='THERMOCOUPLE' /
&DEVC ID='TC-AG-03', XYZ=5.41,1.80,3.35, QUANTITY='THERMOCOUPLE' /
&DEVC ID='TC-AG-04', XYZ=5.61,1.80,3.35, QUANTITY='THERMOCOUPLE' /
&DEVC ID='TC-AG-05', XYZ=5.81,1.80,3.35, QUANTITY='THERMOCOUPLE' /
&DEVC ID='TC-AG-06', XYZ=5.11,1.90,3.35, QUANTITY='THERMOCOUPLE' /
&DEVC ID='TC-AG-07', XYZ=5.01,2.00,3.35, QUANTITY='THERMOCOUPLE' /
&DEVC ID='TC-AG-08', XYZ=5.21,2.00,3.35, QUANTITY='THERMOCOUPLE' /
&DEVC ID='TC-AG-09', XYZ=5.41,2.00,3.35, QUANTITY='THERMOCOUPLE' /
&DEVC ID='TC-AG-10', XYZ=5.61,2.00,3.35, QUANTITY='THERMOCOUPLE' /
&DEVC ID='TC-AG-11', XYZ=5.81,2.00,3.35, QUANTITY='THERMOCOUPLE' /
&DEVC ID='TC-AG-12', XYZ=5.31,2.10,3.35, QUANTITY='THERMOCOUPLE' /
&DEVC ID='TC-AG-13', XYZ=5.01,2.20,3.35, QUANTITY='THERMOCOUPLE' /
&DEVC ID='TC-AG-14', XYZ=5.21,2.20,3.35, QUANTITY='THERMOCOUPLE' /
&DEVC ID='TC-AG-15', XYZ=5.41,2.20,3.35, QUANTITY='THERMOCOUPLE' /
&DEVC ID='TC-AG-16', XYZ=5.61,2.20,3.35, QUANTITY='THERMOCOUPLE' /
&DEVC ID='TC-AG-17', XYZ=5.81,2.20,3.35, QUANTITY='THERMOCOUPLE' /
&DEVC ID='TC-AG-18', XYZ=5.51,2.30,3.35, QUANTITY='THERMOCOUPLE' /
&DEVC ID='TC-AG-19', XYZ=5.01,2.40,3.35, QUANTITY='THERMOCOUPLE' /
&DEVC ID='TC-AG-20', XYZ=5.21,2.40,3.35, QUANTITY='THERMOCOUPLE' /
! ... 9 like lines cut

&DEVC ID='TC-BG-01', XYZ=5.01,1.80,2.74, QUANTITY='THERMOCOUPLE' /
&DEVC ID='TC-BG-02', XYZ=5.21,1.80,2.74, QUANTITY='THERMOCOUPLE' /
&DEVC ID='TC-BG-03', XYZ=5.41,1.80,2.74, QUANTITY='THERMOCOUPLE' /
&DEVC ID='TC-BG-04', XYZ=5.61,1.80,2.74, QUANTITY='THERMOCOUPLE' /
&DEVC ID='TC-BG-05', XYZ=5.81,1.80,2.74, QUANTITY='THERMOCOUPLE' /
&DEVC ID='TC-BG-06', XYZ=5.11,1.90,2.74, QUANTITY='THERMOCOUPLE' /
&DEVC ID='TC-BG-07', XYZ=5.01,2.00,2.74, QUANTITY='THERMOCOUPLE' /
&DEVC ID='TC-BG-08', XYZ=5.21,2.00,2.74, QUANTITY='THERMOCOUPLE' /
&DEVC ID='TC-BG-09', XYZ=5.41,2.00,2.74, QUANTITY='THERMOCOUPLE' /
&DEVC ID='TC-BG-10', XYZ=5.61,2.00,2.74, QUANTITY='THERMOCOUPLE' /
&DEVC ID='TC-BG-11', XYZ=5.81,2.00,2.74, QUANTITY='THERMOCOUPLE' /
&DEVC ID='TC-BG-12', XYZ=5.31,2.10,2.74, QUANTITY='THERMOCOUPLE' /
&DEVC ID='TC-BG-13', XYZ=5.01,2.20,2.74, QUANTITY='THERMOCOUPLE' /
&DEVC ID='TC-BG-14', XYZ=5.21,2.20,2.74, QUANTITY='THERMOCOUPLE' /
&DEVC ID='TC-BG-15', XYZ=5.41,2.20,2.74, QUANTITY='THERMOCOUPLE' /
&DEVC ID='TC-BG-16', XYZ=5.61,2.20,2.74, QUANTITY='THERMOCOUPLE' /
&DEVC ID='TC-BG-17', XYZ=5.81,2.20,2.74, QUANTITY='THERMOCOUPLE' /
&DEVC ID='TC-BG-18', XYZ=5.51,2.30,2.74, QUANTITY='THERMOCOUPLE' /
&DEVC ID='TC-BG-19', XYZ=5.01,2.40,2.74, QUANTITY='THERMOCOUPLE' /
&DEVC ID='TC-BG-20', XYZ=5.21,2.40,2.74, QUANTITY='THERMOCOUPLE' /
! ... 9 like lines cut

&DEVC ID='TC-CG-01', XYZ=5.01,1.80,2.13, QUANTITY='THERMOCOUPLE' /
&DEVC ID='TC-CG-02', XYZ=5.21,1.80,2.13, QUANTITY='THERMOCOUPLE' /
&DEVC ID='TC-CG-03', XYZ=5.41,1.80,2.13, QUANTITY='THERMOCOUPLE' /
&DEVC ID='TC-CG-04', XYZ=5.61,1.80,2.13, QUANTITY='THERMOCOUPLE' /
&DEVC ID='TC-CG-05', XYZ=5.81,1.80,2.13, QUANTITY='THERMOCOUPLE' /
&DEVC ID='TC-CG-06', XYZ=5.11,1.90,2.13, QUANTITY='THERMOCOUPLE' /
&DEVC ID='TC-CG-07', XYZ=5.01,2.00,2.13, QUANTITY='THERMOCOUPLE' /
&DEVC ID='TC-CG-08', XYZ=5.21,2.00,2.13, QUANTITY='THERMOCOUPLE' /
&DEVC ID='TC-CG-09', XYZ=5.41,2.00,2.13, QUANTITY='THERMOCOUPLE' /
&DEVC ID='TC-CG-10', XYZ=5.61,2.00,2.13, QUANTITY='THERMOCOUPLE' /
&DEVC ID='TC-CG-11', XYZ=5.81,2.00,2.13, QUANTITY='THERMOCOUPLE' /
&DEVC ID='TC-CG-12', XYZ=5.31,2.10,2.13, QUANTITY='THERMOCOUPLE' /
&DEVC ID='TC-CG-13', XYZ=5.01,2.20,2.13, QUANTITY='THERMOCOUPLE' /
&DEVC ID='TC-CG-14', XYZ=5.21,2.20,2.13, QUANTITY='THERMOCOUPLE' /
&DEVC ID='TC-CG-15', XYZ=5.41,2.20,2.13, QUANTITY='THERMOCOUPLE' /
&DEVC ID='TC-CG-16', XYZ=5.61,2.20,2.13, QUANTITY='THERMOCOUPLE' /
&DEVC ID='TC-CG-17', XYZ=5.81,2.20,2.13, QUANTITY='THERMOCOUPLE' /
&DEVC ID='TC-CG-18', XYZ=5.51,2.30,2.13, QUANTITY='THERMOCOUPLE' /
&DEVC ID='TC-CG-19', XYZ=5.01,2.40,2.13, QUANTITY='THERMOCOUPLE' /
&DEVC ID='TC-CG-20', XYZ=5.21,2.40,2.13, QUANTITY='THERMOCOUPLE' /
! ... 9 like lines cut

&DEVC ID='TC-WT-01', XYZ=3.60,3.60,3.75, QUANTITY='THERMOCOUPLE' /
&DEVC ID='TC-WT-02', XYZ=3.60,3.60,3.50, QUANTITY='THERMOCOUPLE' /
&DEVC ID='TC-WT-03', XYZ=3.60,3.60,3.20, QUANTITY='THERMOCOUPLE' /
&DEVC ID='TC-WT-04', XYZ=3.60,3.60,2.90, QUANTITY='THERMOCOUPLE' /
&DEVC ID='TC-WT-05', XYZ=3.60,3.60,2.60, QUANTITY='THERMOCOUPLE' /
&DEVC ID='TC-WT-06', XYZ=3.60,3.60,2.30, QUANTITY='THERMOCOUPLE' /
&DEVC ID='TC-WT-07', XYZ=3.60,3.60,2.00, QUANTITY='THERMOCOUPLE' /
&DEVC ID='TC-WT-08', XYZ=3.60,3.60,1.70, QUANTITY='THERMOCOUPLE' /
&DEVC ID='TC-WT-09', XYZ=3.60,3.60,1.40, QUANTITY='THERMOCOUPLE' /
&DEVC ID='TC-WT-10', XYZ=3.60,3.60,1.10, QUANTITY='THERMOCOUPLE' /
&DEVC ID='TC-WT-11', XYZ=3.60,3.60,0.80, QUANTITY='THERMOCOUPLE' /
&DEVC ID='TC-WT-12', XYZ=3.60,3.60,0.50, QUANTITY='THERMOCOUPLE' /
&DEVC ID='TC-WT-13', XYZ=3.60,3.60,0.20, QUANTITY='THERMOCOUPLE' /

&DEVC ID='TC-ET-01', XYZ=7.40,3.60,3.75, QUANTITY='THERMOCOUPLE' /
&DEVC ID='TC-ET-02', XYZ=7.40,3.60,3.50, QUANTITY='THERMOCOUPLE' /
&DEVC ID='TC-ET-03', XYZ=7.40,3.60,3.20, QUANTITY='THERMOCOUPLE' /
&DEVC ID='TC-ET-04', XYZ=7.40,3.60,2.90, QUANTITY='THERMOCOUPLE' /
&DEVC ID='TC-ET-05', XYZ=7.40,3.60,2.60, QUANTITY='THERMOCOUPLE' /
&DEVC ID='TC-ET-06', XYZ=7.40,3.60,2.30, QUANTITY='THERMOCOUPLE' /
&DEVC ID='TC-ET-07', XYZ=7.40,3.60,2.00, QUANTITY='THERMOCOUPLE' /
&DEVC ID='TC-ET-08', XYZ=7.40,3.60,1.70, QUANTITY='THERMOCOUPLE' /
&DEVC ID='TC-ET-09', XYZ=7.40,3.60,1.40, QUANTITY='THERMOCOUPLE' /
&DEVC ID='TC-ET-10', XYZ=7.40,3.60,1.10, QUANTITY='THERMOCOUPLE' /
&DEVC ID='TC-ET-11', XYZ=7.40,3.60,0.80, QUANTITY='THERMOCOUPLE' /
&DEVC ID='TC-ET-12', XYZ=7.40,3.60,0.50, QUANTITY='THERMOCOUPLE' /
&DEVC ID='TC-ET-13', XYZ=7.40,3.60,0.20, QUANTITY='THERMOCOUPLE' /

&DEVC ID='TC-C-01', XYZ=0.02,0.02,3.75, QUANTITY='THERMOCOUPLE' /
&DEVC ID='TC-C-02', XYZ=0.02,0.02,3.50, QUANTITY='THERMOCOUPLE' /
&DEVC ID='TC-C-03', XYZ=0.02,0.02,3.20, QUANTITY='THERMOCOUPLE' /
&DEVC ID='TC-C-04', XYZ=0.02,0.02,2.90, QUANTITY='THERMOCOUPLE' /
&DEVC ID='TC-C-05', XYZ=0.02,0.02,2.60, QUANTITY='THERMOCOUPLE' /
&DEVC ID='TC-C-06', XYZ=0.02,0.02,2.30, QUANTITY='THERMOCOUPLE' /
&DEVC ID='TC-C-07', XYZ=0.02,0.02,2.00, QUANTITY='THERMOCOUPLE' /
&DEVC ID='TC-C-08', XYZ=0.02,0.02,1.70, QUANTITY='THERMOCOUPLE' /
&DEVC ID='TC-C-09', XYZ=0.02,0.02,1.40, QUANTITY='THERMOCOUPLE' /
&DEVC ID='TC-C-10', XYZ=0.02,0.02,1.10, QUANTITY='THERMOCOUPLE' /
&DEVC ID='TC-C-11', XYZ=0.02,0.02,0.80, QUANTITY='THERMOCOUPLE' /

&DEVC ID='TC-W-01', XYZ=5.49,0.02,3.75, QUANTITY='THERMOCOUPLE' /
&DEVC ID='TC-W-02', XYZ=5.49,0.02,3.50, QUANTITY='THERMOCOUPLE' /
&DEVC ID='TC-W-03', XYZ=5.49,0.02,3.20, QUANTITY='THERMOCOUPLE' /
&DEVC ID='TC-W-04', XYZ=5.49,0.02,2.90, QUANTITY='THERMOCOUPLE' /
&DEVC ID='TC-W-05', XYZ=5.49,0.02,2.60, QUANTITY='THERMOCOUPLE' /
&DEVC ID='TC-W-06', XYZ=5.49,0.02,2.30, QUANTITY='THERMOCOUPLE' /
&DEVC ID='TC-W-07', XYZ=5.49,0.02,2.00, QUANTITY='THERMOCOUPLE' /
&DEVC ID='TC-W-08', XYZ=5.49,0.02,1.70, QUANTITY='THERMOCOUPLE' /
&DEVC ID='TC-W-09', XYZ=5.49,0.02,1.40, QUANTITY='THERMOCOUPLE' /
&DEVC ID='TC-W-10', XYZ=5.49,0.02,1.10, QUANTITY='THERMOCOUPLE' /
&DEVC ID='TC-W-11', XYZ=5.49,0.02,0.80, QUANTITY='THERMOCOUPLE' /

&DEVC ID='PT-1', XYZ=4.25,1.40,1.35, QUANTITY='WALL TEMPERATURE', IOR= 2 /
&DEVC ID='PT-2', XYZ=4.25,1.40,0.75, QUANTITY='WALL TEMPERATURE', IOR= 2 /
&DEVC ID='PT-3', XYZ=3.50,2.15,1.35, QUANTITY='WALL TEMPERATURE', IOR= 1 /
&DEVC ID='PT-4', XYZ=3.50,2.15,0.75, QUANTITY='WALL TEMPERATURE', IOR= 1 /
&DEVC ID='PT-5', XYZ=6.20,2.15,1.35, QUANTITY='WALL TEMPERATURE', IOR=-1 /
&DEVC ID='PT-6', XYZ=6.20,2.15,0.75, QUANTITY='WALL TEMPERATURE', IOR=-1 /
&DEVC ID='PT-7', XYZ=4.25,2.90,1.35, QUANTITY='WALL TEMPERATURE', IOR=-2 /
&DEVC ID='PT-8', XYZ=4.25,2.90,0.75, QUANTITY='WALL TEMPERATURE', IOR=-2 /

&DEVC ID='STC-1', XYZ=4.25,2.15,2.04, QUANTITY='THERMOCOUPLE' /
&DEVC ID='STC-2', XYZ=4.25,2.15,1.80, QUANTITY='THERMOCOUPLE' /
&DEVC ID='STC-3', XYZ=4.25,2.15,1.50, QUANTITY='THERMOCOUPLE' /
&DEVC ID='STC-4', XYZ=4.25,2.15,1.20, QUANTITY='THERMOCOUPLE' /
&DEVC ID='STC-5', XYZ=4.25,2.15,0.90, QUANTITY='THERMOCOUPLE' /
&DEVC ID='STC-6', XYZ=4.25,2.15,0.60, QUANTITY='THERMOCOUPLE' /

&DEVC ID='TC-Cab', XYZ=4.25,2.15,0.50, QUANTITY='WALL TEMPERATURE', IOR=3 /

&DUMP DT_DEVC=20. /

&SLCF PBY=0.05, QUANTITY='TEMPERATURE', CELL_CENTERED=.TRUE. /
&SLCF PBY=2.20, QUANTITY='TEMPERATURE', VECTOR=.TRUE. /
&SLCF PBY=2.20, QUANTITY='TEMPERATURE', CELL_CENTERED=.TRUE. /
&SLCF PBZ=2.10, QUANTITY='TEMPERATURE', CELL_CENTERED=.TRUE. /
&SLCF PBZ=2.70, QUANTITY='TEMPERATURE', CELL_CENTERED=.TRUE. /
&SLCF PBZ=3.30, QUANTITY='TEMPERATURE', CELL_CENTERED=.TRUE. /

&TAIL/

