&HEAD CHID='corner_300_kW', TITLE='200 kW burner in a corner, moving outward' /

&MESH IJK=28,36,38, XB=0.0,1.375,0.0,1.75,0.0,1.9, MULT_ID='fine_mesh' /
&MULT ID='fine_mesh', DX=1.375, DY=1.75, DZ=1.9, I_UPPER=1, J_UPPER=1, K_UPPER=1 /

&MESH IJK=28,36,38, XB=0.0,2.75,3.5,7.0,0.0,3.8 /

&MESH IJK=28,36,38, XB=0.0,2.75,0.0,3.5,0.0,3.8, MULT_ID='mesh' /
&MULT ID='mesh', DX=2.75, DY=3.5, I_LOWER=1, I_UPPER=3, J_UPPER=1 /

&TIME T_END=7500., TIME_SHRINK_FACTOR=5. /

&MISC TMPA=27. /

&MATL ID='GYPSUM BOARD'
      SPECIFIC_HEAT=1.1
      CONDUCTIVITY=0.16
      DENSITY=700.0/

&SURF ID='WALL',
      RGB=200,200,200
      DEFAULT=.TRUE.
      MATL_ID(1,1)='GYPSUM BOARD'
      BACKING='VOID'
      THICKNESS(1)=0.016 /

&MATL ID            = 'DUROCK'
      CONDUCTIVITY  = 0.15
      SPECIFIC_HEAT = 1.0
      DENSITY       = 925. /

&SURF ID            = 'HARDENED WALL'
      RGB           = 100,100,100
      MATL_ID       = 'DUROCK','GYPSUM BOARD'
      THICKNESS     = 0.006,0.016 /

&MATL ID            = 'STEEL'
      SPECIFIC_HEAT = 0.465
      CONDUCTIVITY  = 54.
      DENSITY       = 7833. /

&SURF ID            = 'STEEL PLATE'
      MATL_ID       = 'STEEL'
      THICKNESS     = 0.003
      COLOR         = 'BLACK' /

&VENT XB=11.0,11.0,2.6,4.4,0.0,2.4, SURF_ID='OPEN' /
&VENT PBZ=0., SURF_ID='HARDENED WALL' /
&VENT XB=0.0,7.0,0.0,0.0,0.0,3.8, SURF_ID='HARDENED WALL' /
&VENT XB=0.0,0.0,0.0,3.0,0.0,3.8, SURF_ID='HARDENED WALL' /
&VENT XB=0.0,7.0,0.0,3.0,3.8,3.8, SURF_ID='HARDENED WALL' /

&REAC FUEL='METHANE', SOOT_YIELD=0.001, RADIATIVE_FRACTION=0.25 /

&SURF ID='FIRE', HRRPUA=1200.0, COLOR='ORANGE', TMP_FRONT=300. / 

&MULT ID='vent', DX=0.30, DY=0.30, I_UPPER=1, J_UPPER=1 /
&VENT XB=0.05,0.30,0.05,0.30,0.50,0.50, SURF_ID='FIRE', OBST_ID='burner1', MULT_ID='vent'  /
&VENT XB=0.15,0.40,0.15,0.40,0.50,0.50, SURF_ID='FIRE', OBST_ID='burner2', MULT_ID='vent'  /
&VENT XB=0.25,0.50,0.25,0.50,0.50,0.50, SURF_ID='FIRE', OBST_ID='burner3', MULT_ID='vent'  /
&VENT XB=0.35,0.60,0.35,0.60,0.50,0.50, SURF_ID='FIRE', OBST_ID='burner4', MULT_ID='vent'  /
&VENT XB=0.55,0.80,0.55,0.80,0.50,0.50, SURF_ID='FIRE', OBST_ID='burner5', MULT_ID='vent'  /
&VENT XB=1.05,1.30,1.05,1.30,0.50,0.50, SURF_ID='FIRE', OBST_ID='burner6', MULT_ID='vent'  /
&VENT XB=1.65,1.90,1.65,1.90,0.50,0.50, SURF_ID='FIRE', OBST_ID='burner7', MULT_ID='vent'  /

&OBST ID='burner1', XB=0.00,0.65,0.00,0.65,0.30,0.50, SURF_ID='STEEL PLATE', CTRL_ID='position 1 control' /
&OBST ID='burner2', XB=0.10,0.75,0.10,0.75,0.30,0.50, SURF_ID='STEEL PLATE', CTRL_ID='position 2 control' /
&OBST ID='burner3', XB=0.20,0.85,0.20,0.85,0.30,0.50, SURF_ID='STEEL PLATE', CTRL_ID='position 3 control' /
&OBST ID='burner4', XB=0.30,0.95,0.30,0.95,0.30,0.50, SURF_ID='STEEL PLATE', CTRL_ID='position 4 control' /
&OBST ID='burner5', XB=0.50,1.15,0.50,1.15,0.30,0.50, SURF_ID='STEEL PLATE', CTRL_ID='position 5 control' /
&OBST ID='burner6', XB=1.00,1.65,1.00,1.65,0.30,0.50, SURF_ID='STEEL PLATE', CTRL_ID='position 6 control' /
&OBST ID='burner7', XB=1.60,2.25,1.60,2.25,0.30,0.50, SURF_ID='STEEL PLATE', CTRL_ID='position 7 control' /

&CTRL ID='position 1 control', FUNCTION_TYPE='CUSTOM', INPUT_ID='time', RAMP_ID='timer 1' /
&CTRL ID='position 2 control', FUNCTION_TYPE='CUSTOM', INPUT_ID='time', RAMP_ID='timer 2' /
&CTRL ID='position 3 control', FUNCTION_TYPE='CUSTOM', INPUT_ID='time', RAMP_ID='timer 3' /
&CTRL ID='position 4 control', FUNCTION_TYPE='CUSTOM', INPUT_ID='time', RAMP_ID='timer 4' /
&CTRL ID='position 5 control', FUNCTION_TYPE='CUSTOM', INPUT_ID='time', RAMP_ID='timer 5' /
&CTRL ID='position 6 control', FUNCTION_TYPE='CUSTOM', INPUT_ID='time', RAMP_ID='timer 6' /
&CTRL ID='position 7 control', FUNCTION_TYPE='CUSTOM', INPUT_ID='time', RAMP_ID='timer 7' /

&DEVC ID='time', XYZ=0,0,0, QUANTITY='TIME' /

&RAMP ID='timer 1', T=   0.0, F=-1 /
&RAMP ID='timer 1', T=  30.0, F= 1 /
&RAMP ID='timer 1', T=1800.0, F= 1 /
&RAMP ID='timer 1', T=1800.1, F=-1 /

&RAMP ID='timer 2', T=   0.0, F=-1 /
&RAMP ID='timer 2', T=1800.1, F=-1 /
&RAMP ID='timer 2', T=1800.2, F= 1 /
&RAMP ID='timer 2', T=2700.0, F= 1 /
&RAMP ID='timer 2', T=2700.1, F=-1 /

&RAMP ID='timer 3', T=   0.0, F=-1 /
&RAMP ID='timer 3', T=2700.1, F=-1 /
&RAMP ID='timer 3', T=2700.2, F= 1 /
&RAMP ID='timer 3', T=3600.0, F= 1 /
&RAMP ID='timer 3', T=3600.1, F=-1 /

&RAMP ID='timer 4', T=   0.0, F=-1 /
&RAMP ID='timer 4', T=3600.1, F=-1 /
&RAMP ID='timer 4', T=3600.2, F= 1 /
&RAMP ID='timer 4', T=4500.0, F= 1 /
&RAMP ID='timer 4', T=4500.1, F=-1 /

&RAMP ID='timer 5', T=   0.0, F=-1 /
&RAMP ID='timer 5', T=4500.1, F=-1 /
&RAMP ID='timer 5', T=4500.2, F= 1 /
&RAMP ID='timer 5', T=5400.0, F= 1 /
&RAMP ID='timer 5', T=5400.1, F=-1 /

&RAMP ID='timer 6', T=   0.0, F=-1 /
&RAMP ID='timer 6', T=5400.1, F=-1 /
&RAMP ID='timer 6', T=5400.2, F= 1 /
&RAMP ID='timer 6', T=6300.0, F= 1 /
&RAMP ID='timer 6', T=6300.1, F=-1 /

&RAMP ID='timer 7', T=   0.0, F=-1 /
&RAMP ID='timer 7', T=6300.1, F=-1 /
&RAMP ID='timer 7', T=6300.2, F= 1 /
&RAMP ID='timer 7', T=7200.0, F= 1 /
&RAMP ID='timer 7', T=7200.1, F=-1 /

&DEVC ID='TC-AG-01', XYZ=0.01,0.01,3.35, QUANTITY='THERMOCOUPLE' /
&DEVC ID='TC-AG-02', XYZ=0.21,0.01,3.35, QUANTITY='THERMOCOUPLE' /
&DEVC ID='TC-AG-03', XYZ=0.41,0.01,3.35, QUANTITY='THERMOCOUPLE' /
&DEVC ID='TC-AG-04', XYZ=0.61,0.01,3.35, QUANTITY='THERMOCOUPLE' /
&DEVC ID='TC-AG-05', XYZ=0.81,0.01,3.35, QUANTITY='THERMOCOUPLE' /
&DEVC ID='TC-AG-06', XYZ=0.11,0.11,3.35, QUANTITY='THERMOCOUPLE' /
&DEVC ID='TC-AG-07', XYZ=0.01,0.21,3.35, QUANTITY='THERMOCOUPLE' /
&DEVC ID='TC-AG-08', XYZ=0.21,0.21,3.35, QUANTITY='THERMOCOUPLE' /
&DEVC ID='TC-AG-09', XYZ=0.41,0.21,3.35, QUANTITY='THERMOCOUPLE' /
&DEVC ID='TC-AG-10', XYZ=0.61,0.21,3.35, QUANTITY='THERMOCOUPLE' /
&DEVC ID='TC-AG-11', XYZ=0.81,0.21,3.35, QUANTITY='THERMOCOUPLE' /
&DEVC ID='TC-AG-12', XYZ=0.31,0.31,3.35, QUANTITY='THERMOCOUPLE' /
&DEVC ID='TC-AG-13', XYZ=0.01,0.41,3.35, QUANTITY='THERMOCOUPLE' /
&DEVC ID='TC-AG-14', XYZ=0.21,0.41,3.35, QUANTITY='THERMOCOUPLE' /
&DEVC ID='TC-AG-15', XYZ=0.41,0.41,3.35, QUANTITY='THERMOCOUPLE' /
&DEVC ID='TC-AG-16', XYZ=0.61,0.41,3.35, QUANTITY='THERMOCOUPLE' /
&DEVC ID='TC-AG-17', XYZ=0.81,0.41,3.35, QUANTITY='THERMOCOUPLE' /
&DEVC ID='TC-AG-18', XYZ=0.51,0.51,3.35, QUANTITY='THERMOCOUPLE' /
&DEVC ID='TC-AG-19', XYZ=0.01,0.61,3.35, QUANTITY='THERMOCOUPLE' /
&DEVC ID='TC-AG-20', XYZ=0.21,0.61,3.35, QUANTITY='THERMOCOUPLE' /
! ... 9 like lines cut

&DEVC ID='TC-BG-01', XYZ=0.01,0.01,2.74, QUANTITY='THERMOCOUPLE' /
&DEVC ID='TC-BG-02', XYZ=0.21,0.01,2.74, QUANTITY='THERMOCOUPLE' /
&DEVC ID='TC-BG-03', XYZ=0.41,0.01,2.74, QUANTITY='THERMOCOUPLE' /
&DEVC ID='TC-BG-04', XYZ=0.61,0.01,2.74, QUANTITY='THERMOCOUPLE' /
&DEVC ID='TC-BG-05', XYZ=0.81,0.01,2.74, QUANTITY='THERMOCOUPLE' /
&DEVC ID='TC-BG-06', XYZ=0.11,0.11,2.74, QUANTITY='THERMOCOUPLE' /
&DEVC ID='TC-BG-07', XYZ=0.01,0.21,2.74, QUANTITY='THERMOCOUPLE' /
&DEVC ID='TC-BG-08', XYZ=0.21,0.21,2.74, QUANTITY='THERMOCOUPLE' /
&DEVC ID='TC-BG-09', XYZ=0.41,0.21,2.74, QUANTITY='THERMOCOUPLE' /
&DEVC ID='TC-BG-10', XYZ=0.61,0.21,2.74, QUANTITY='THERMOCOUPLE' /
&DEVC ID='TC-BG-11', XYZ=0.81,0.21,2.74, QUANTITY='THERMOCOUPLE' /
&DEVC ID='TC-BG-12', XYZ=0.31,0.31,2.74, QUANTITY='THERMOCOUPLE' /
&DEVC ID='TC-BG-13', XYZ=0.01,0.41,2.74, QUANTITY='THERMOCOUPLE' /
&DEVC ID='TC-BG-14', XYZ=0.21,0.41,2.74, QUANTITY='THERMOCOUPLE' /
&DEVC ID='TC-BG-15', XYZ=0.41,0.41,2.74, QUANTITY='THERMOCOUPLE' /
&DEVC ID='TC-BG-16', XYZ=0.61,0.41,2.74, QUANTITY='THERMOCOUPLE' /
&DEVC ID='TC-BG-17', XYZ=0.81,0.41,2.74, QUANTITY='THERMOCOUPLE' /
&DEVC ID='TC-BG-18', XYZ=0.51,0.51,2.74, QUANTITY='THERMOCOUPLE' /
&DEVC ID='TC-BG-19', XYZ=0.01,0.61,2.74, QUANTITY='THERMOCOUPLE' /
&DEVC ID='TC-BG-20', XYZ=0.21,0.61,2.74, QUANTITY='THERMOCOUPLE' /
! ... 9 like lines cut

&DEVC ID='TC-CG-01', XYZ=0.01,0.01,2.13, QUANTITY='THERMOCOUPLE' /
&DEVC ID='TC-CG-02', XYZ=0.21,0.01,2.13, QUANTITY='THERMOCOUPLE' /
&DEVC ID='TC-CG-03', XYZ=0.41,0.01,2.13, QUANTITY='THERMOCOUPLE' /
&DEVC ID='TC-CG-04', XYZ=0.61,0.01,2.13, QUANTITY='THERMOCOUPLE' /
&DEVC ID='TC-CG-05', XYZ=0.81,0.01,2.13, QUANTITY='THERMOCOUPLE' /
&DEVC ID='TC-CG-06', XYZ=0.11,0.11,2.13, QUANTITY='THERMOCOUPLE' /
&DEVC ID='TC-CG-07', XYZ=0.01,0.21,2.13, QUANTITY='THERMOCOUPLE' /
&DEVC ID='TC-CG-08', XYZ=0.21,0.21,2.13, QUANTITY='THERMOCOUPLE' /
&DEVC ID='TC-CG-09', XYZ=0.41,0.21,2.13, QUANTITY='THERMOCOUPLE' /
&DEVC ID='TC-CG-10', XYZ=0.61,0.21,2.13, QUANTITY='THERMOCOUPLE' /
&DEVC ID='TC-CG-11', XYZ=0.81,0.21,2.13, QUANTITY='THERMOCOUPLE' /
&DEVC ID='TC-CG-12', XYZ=0.31,0.31,2.13, QUANTITY='THERMOCOUPLE' /
&DEVC ID='TC-CG-13', XYZ=0.01,0.41,2.13, QUANTITY='THERMOCOUPLE' /
&DEVC ID='TC-CG-14', XYZ=0.21,0.41,2.13, QUANTITY='THERMOCOUPLE' /
&DEVC ID='TC-CG-15', XYZ=0.41,0.41,2.13, QUANTITY='THERMOCOUPLE' /
&DEVC ID='TC-CG-16', XYZ=0.61,0.41,2.13, QUANTITY='THERMOCOUPLE' /
&DEVC ID='TC-CG-17', XYZ=0.81,0.41,2.13, QUANTITY='THERMOCOUPLE' /
&DEVC ID='TC-CG-18', XYZ=0.51,0.51,2.13, QUANTITY='THERMOCOUPLE' /
&DEVC ID='TC-CG-19', XYZ=0.01,0.61,2.13, QUANTITY='THERMOCOUPLE' /
&DEVC ID='TC-CG-20', XYZ=0.21,0.61,2.13, QUANTITY='THERMOCOUPLE' /
! ... 9 like lines cut

&DEVC ID='TC-WT-01', XYZ=3.60,3.60,3.75, QUANTITY='THERMOCOUPLE' /
&DEVC ID='TC-WT-02', XYZ=3.60,3.60,3.50, QUANTITY='THERMOCOUPLE' /
&DEVC ID='TC-WT-03', XYZ=3.60,3.60,3.20, QUANTITY='THERMOCOUPLE' /
&DEVC ID='TC-WT-04', XYZ=3.60,3.60,2.90, QUANTITY='THERMOCOUPLE' /
&DEVC ID='TC-WT-05', XYZ=3.60,3.60,2.60, QUANTITY='THERMOCOUPLE' /
&DEVC ID='TC-WT-06', XYZ=3.60,3.60,2.30, QUANTITY='THERMOCOUPLE' /
&DEVC ID='TC-WT-07', XYZ=3.60,3.60,2.00, QUANTITY='THERMOCOUPLE' /
&DEVC ID='TC-WT-08', XYZ=3.60,3.60,1.70, QUANTITY='THERMOCOUPLE' /
&DEVC ID='TC-WT-09', XYZ=3.60,3.60,1.40, QUANTITY='THERMOCOUPLE' /
&DEVC ID='TC-WT-10', XYZ=3.60,3.60,1.10, QUANTITY='THERMOCOUPLE' /
&DEVC ID='TC-WT-11', XYZ=3.60,3.60,0.80, QUANTITY='THERMOCOUPLE' /
&DEVC ID='TC-WT-12', XYZ=3.60,3.60,0.50, QUANTITY='THERMOCOUPLE' /
&DEVC ID='TC-WT-13', XYZ=3.60,3.60,0.20, QUANTITY='THERMOCOUPLE' /

&DEVC ID='TC-ET-01', XYZ=7.40,3.60,3.75, QUANTITY='THERMOCOUPLE' /
&DEVC ID='TC-ET-02', XYZ=7.40,3.60,3.50, QUANTITY='THERMOCOUPLE' /
&DEVC ID='TC-ET-03', XYZ=7.40,3.60,3.20, QUANTITY='THERMOCOUPLE' /
&DEVC ID='TC-ET-04', XYZ=7.40,3.60,2.90, QUANTITY='THERMOCOUPLE' /
&DEVC ID='TC-ET-05', XYZ=7.40,3.60,2.60, QUANTITY='THERMOCOUPLE' /
&DEVC ID='TC-ET-06', XYZ=7.40,3.60,2.30, QUANTITY='THERMOCOUPLE' /
&DEVC ID='TC-ET-07', XYZ=7.40,3.60,2.00, QUANTITY='THERMOCOUPLE' /
&DEVC ID='TC-ET-08', XYZ=7.40,3.60,1.70, QUANTITY='THERMOCOUPLE' /
&DEVC ID='TC-ET-09', XYZ=7.40,3.60,1.40, QUANTITY='THERMOCOUPLE' /
&DEVC ID='TC-ET-10', XYZ=7.40,3.60,1.10, QUANTITY='THERMOCOUPLE' /
&DEVC ID='TC-ET-11', XYZ=7.40,3.60,0.80, QUANTITY='THERMOCOUPLE' /
&DEVC ID='TC-ET-12', XYZ=7.40,3.60,0.50, QUANTITY='THERMOCOUPLE' /
&DEVC ID='TC-ET-13', XYZ=7.40,3.60,0.20, QUANTITY='THERMOCOUPLE' /

&DEVC ID='TC-C-01', XYZ=0.02,0.02,3.75, QUANTITY='THERMOCOUPLE' /
&DEVC ID='TC-C-02', XYZ=0.02,0.02,3.50, QUANTITY='THERMOCOUPLE' /
&DEVC ID='TC-C-03', XYZ=0.02,0.02,3.20, QUANTITY='THERMOCOUPLE' /
&DEVC ID='TC-C-04', XYZ=0.02,0.02,2.90, QUANTITY='THERMOCOUPLE' /
&DEVC ID='TC-C-05', XYZ=0.02,0.02,2.60, QUANTITY='THERMOCOUPLE' /
&DEVC ID='TC-C-06', XYZ=0.02,0.02,2.30, QUANTITY='THERMOCOUPLE' /
&DEVC ID='TC-C-07', XYZ=0.02,0.02,2.00, QUANTITY='THERMOCOUPLE' /
&DEVC ID='TC-C-08', XYZ=0.02,0.02,1.70, QUANTITY='THERMOCOUPLE' /
&DEVC ID='TC-C-09', XYZ=0.02,0.02,1.40, QUANTITY='THERMOCOUPLE' /
&DEVC ID='TC-C-10', XYZ=0.02,0.02,1.10, QUANTITY='THERMOCOUPLE' /
&DEVC ID='TC-C-11', XYZ=0.02,0.02,0.80, QUANTITY='THERMOCOUPLE' /

&DEVC ID='TC-W-01', XYZ=5.49,0.02,3.75, QUANTITY='THERMOCOUPLE' /
&DEVC ID='TC-W-02', XYZ=5.49,0.02,3.50, QUANTITY='THERMOCOUPLE' /
&DEVC ID='TC-W-03', XYZ=5.49,0.02,3.20, QUANTITY='THERMOCOUPLE' /
&DEVC ID='TC-W-04', XYZ=5.49,0.02,2.90, QUANTITY='THERMOCOUPLE' /
&DEVC ID='TC-W-05', XYZ=5.49,0.02,2.60, QUANTITY='THERMOCOUPLE' /
&DEVC ID='TC-W-06', XYZ=5.49,0.02,2.30, QUANTITY='THERMOCOUPLE' /
&DEVC ID='TC-W-07', XYZ=5.49,0.02,2.00, QUANTITY='THERMOCOUPLE' /
&DEVC ID='TC-W-08', XYZ=5.49,0.02,1.70, QUANTITY='THERMOCOUPLE' /
&DEVC ID='TC-W-09', XYZ=5.49,0.02,1.40, QUANTITY='THERMOCOUPLE' /
&DEVC ID='TC-W-10', XYZ=5.49,0.02,1.10, QUANTITY='THERMOCOUPLE' /
&DEVC ID='TC-W-11', XYZ=5.49,0.02,0.80, QUANTITY='THERMOCOUPLE' /

&DUMP DT_DEVC=20. /

&SLCF PBY=0.05, QUANTITY='TEMPERATURE', CELL_CENTERED=.TRUE. /
&SLCF PBY=3.60, QUANTITY='TEMPERATURE', VECTOR=.TRUE. /
&SLCF PBZ=2.10, QUANTITY='TEMPERATURE', CELL_CENTERED=.TRUE. /
&SLCF PBZ=2.70, QUANTITY='TEMPERATURE', CELL_CENTERED=.TRUE. /
&SLCF PBZ=3.30, QUANTITY='TEMPERATURE', CELL_CENTERED=.TRUE. /

&TAIL/

