&HEAD CHID='corner_400_kW', TITLE='400 kW burner in a corner, moving outward' /

&MESH IJK=28,35,38, XB=0.0,2.75,0.0,3.5,0.0,3.8, MULT_ID='mesh' /
&MULT ID='mesh', DX=2.75, DY=3.5, I_UPPER=3, J_UPPER=1 /

&TIME T_END=7500., TIME_SHRINK_FACTOR=5. /

&MISC TMPA=25. /

&MATL ID='GYPSUM BOARD'
      SPECIFIC_HEAT=1.1
      CONDUCTIVITY=0.16
      DENSITY=700.0/

&SURF ID='WALL',
      RGB=200,200,200
      DEFAULT=.TRUE.
      MATL_ID(1,1)='GYPSUM BOARD'
      BACKING='VOID'
      THICKNESS(1)=0.016 /

&MATL ID            = 'DUROCK'
      CONDUCTIVITY  = 0.15
      SPECIFIC_HEAT = 1.0
      DENSITY       = 925. /

&SURF ID            = 'HARDENED WALL'
      RGB           = 100,100,100
      MATL_ID       = 'DUROCK','GYPSUM BOARD'
      THICKNESS     = 0.006,0.016 /

&MATL ID            = 'STEEL'
      SPECIFIC_HEAT = 0.465
      CONDUCTIVITY  = 54.
      DENSITY       = 7833. /

&SURF ID            = 'STEEL PLATE'
      MATL_ID       = 'STEEL'
      THICKNESS     = 0.003
      COLOR         = 'BLACK' /

&VENT XB=11.0,11.0,2.6,4.4,0.0,2.4, SURF_ID='OPEN' /
&VENT MB='ZMIN', SURF_ID='HARDENED WALL' /
&VENT XB=0.0,7.0,0.0,0.0,0.0,3.8, SURF_ID='HARDENED WALL' /
&VENT XB=0.0,0.0,0.0,3.0,0.0,3.8, SURF_ID='HARDENED WALL' /
&VENT XB=0.0,7.0,0.0,3.0,3.8,3.8, SURF_ID='HARDENED WALL' /

&REAC FUEL='METHANE', SOOT_YIELD=0.001, RADIATIVE_FRACTION=0.25 /

&SURF ID='FIRE', HRRPUA=1111.1, COLOR='ORANGE', TMP_FRONT=300. / 

&OBST XB=0.00,0.60,0.00,0.60,0.3,0.5, SURF_IDS='FIRE','STEEL PLATE','STEEL PLATE', CTRL_ID='position 1 control' /
&OBST XB=0.10,0.70,0.10,0.70,0.3,0.5, SURF_IDS='FIRE','STEEL PLATE','STEEL PLATE', CTRL_ID='position 2 control' /
&OBST XB=0.20,0.80,0.20,0.80,0.3,0.5, SURF_IDS='FIRE','STEEL PLATE','STEEL PLATE', CTRL_ID='position 3 control' /
&OBST XB=0.30,0.90,0.30,0.90,0.3,0.5, SURF_IDS='FIRE','STEEL PLATE','STEEL PLATE', CTRL_ID='position 4 control' /
&OBST XB=0.50,1.10,0.50,1.10,0.3,0.5, SURF_IDS='FIRE','STEEL PLATE','STEEL PLATE', CTRL_ID='position 5 control' /
&OBST XB=1.00,1.60,1.00,1.60,0.3,0.5, SURF_IDS='FIRE','STEEL PLATE','STEEL PLATE', CTRL_ID='position 6 control' /
&OBST XB=1.60,2.20,1.60,2.20,0.3,0.5, SURF_IDS='FIRE','STEEL PLATE','STEEL PLATE', CTRL_ID='position 7 control' /

&CTRL ID='position 1 control', FUNCTION_TYPE='CUSTOM', INPUT_ID='time', RAMP_ID='timer 1' /
&CTRL ID='position 2 control', FUNCTION_TYPE='CUSTOM', INPUT_ID='time', RAMP_ID='timer 2' /
&CTRL ID='position 3 control', FUNCTION_TYPE='CUSTOM', INPUT_ID='time', RAMP_ID='timer 3' /
&CTRL ID='position 4 control', FUNCTION_TYPE='CUSTOM', INPUT_ID='time', RAMP_ID='timer 4' /
&CTRL ID='position 5 control', FUNCTION_TYPE='CUSTOM', INPUT_ID='time', RAMP_ID='timer 5' /
&CTRL ID='position 6 control', FUNCTION_TYPE='CUSTOM', INPUT_ID='time', RAMP_ID='timer 6' /
&CTRL ID='position 7 control', FUNCTION_TYPE='CUSTOM', INPUT_ID='time', RAMP_ID='timer 7' /

&DEVC ID='time', XYZ=0,0,0, QUANTITY='TIME' /

&RAMP ID='timer 1', T=   0.0, F=-1 /
&RAMP ID='timer 1', T=  30.0, F= 1 /
&RAMP ID='timer 1', T=1800.0, F= 1 /
&RAMP ID='timer 1', T=1800.1, F=-1 /

&RAMP ID='timer 2', T=   0.0, F=-1 /
&RAMP ID='timer 2', T=1800.1, F=-1 /
&RAMP ID='timer 2', T=1800.2, F= 1 /
&RAMP ID='timer 2', T=2700.0, F= 1 /
&RAMP ID='timer 2', T=2700.1, F=-1 /

&RAMP ID='timer 3', T=   0.0, F=-1 /
&RAMP ID='timer 3', T=2700.1, F=-1 /
&RAMP ID='timer 3', T=2700.2, F= 1 /
&RAMP ID='timer 3', T=3600.0, F= 1 /
&RAMP ID='timer 3', T=3600.1, F=-1 /

&RAMP ID='timer 4', T=   0.0, F=-1 /
&RAMP ID='timer 4', T=3600.1, F=-1 /
&RAMP ID='timer 4', T=3600.2, F= 1 /
&RAMP ID='timer 4', T=4500.0, F= 1 /
&RAMP ID='timer 4', T=4500.1, F=-1 /

&RAMP ID='timer 5', T=   0.0, F=-1 /
&RAMP ID='timer 5', T=4500.1, F=-1 /
&RAMP ID='timer 5', T=4500.2, F= 1 /
&RAMP ID='timer 5', T=5400.0, F= 1 /
&RAMP ID='timer 5', T=5400.1, F=-1 /

&RAMP ID='timer 6', T=   0.0, F=-1 /
&RAMP ID='timer 6', T=5400.1, F=-1 /
&RAMP ID='timer 6', T=5400.2, F= 1 /
&RAMP ID='timer 6', T=6300.0, F= 1 /
&RAMP ID='timer 6', T=6300.1, F=-1 /

&RAMP ID='timer 7', T=   0.0, F=-1 /
&RAMP ID='timer 7', T=6300.1, F=-1 /
&RAMP ID='timer 7', T=6300.2, F= 1 /
&RAMP ID='timer 7', T=7200.0, F= 1 /
&RAMP ID='timer 7', T=7200.1, F=-1 /

&DEVC ID='TC-C-01', XYZ=0.01,0.01,3.75, QUANTITY='THERMOCOUPLE' /
&DEVC ID='TC-C-02', XYZ=0.01,0.01,3.50, QUANTITY='THERMOCOUPLE' /
&DEVC ID='TC-C-03', XYZ=0.01,0.01,3.20, QUANTITY='THERMOCOUPLE' /
&DEVC ID='TC-C-04', XYZ=0.01,0.01,2.90, QUANTITY='THERMOCOUPLE' /
&DEVC ID='TC-C-05', XYZ=0.01,0.01,2.60, QUANTITY='THERMOCOUPLE' /
&DEVC ID='TC-C-06', XYZ=0.01,0.01,2.30, QUANTITY='THERMOCOUPLE' /
&DEVC ID='TC-C-07', XYZ=0.01,0.01,2.00, QUANTITY='THERMOCOUPLE' /
&DEVC ID='TC-C-08', XYZ=0.01,0.01,1.70, QUANTITY='THERMOCOUPLE' /
&DEVC ID='TC-C-09', XYZ=0.01,0.01,1.40, QUANTITY='THERMOCOUPLE' /
&DEVC ID='TC-C-10', XYZ=0.01,0.01,1.10, QUANTITY='THERMOCOUPLE' /
&DEVC ID='TC-C-11', XYZ=0.01,0.01,0.80, QUANTITY='THERMOCOUPLE' /

&DEVC ID='TC-L-01', XYZ=2.75,3.60,3.75, QUANTITY='THERMOCOUPLE' /
&DEVC ID='TC-L-02', XYZ=2.75,3.60,3.50, QUANTITY='THERMOCOUPLE' /
&DEVC ID='TC-L-03', XYZ=2.75,3.60,3.20, QUANTITY='THERMOCOUPLE' /
&DEVC ID='TC-L-04', XYZ=2.75,3.60,2.90, QUANTITY='THERMOCOUPLE' /
&DEVC ID='TC-L-05', XYZ=2.75,3.60,2.60, QUANTITY='THERMOCOUPLE' /
&DEVC ID='TC-L-06', XYZ=2.75,3.60,2.30, QUANTITY='THERMOCOUPLE' /
&DEVC ID='TC-L-07', XYZ=2.75,3.60,2.00, QUANTITY='THERMOCOUPLE' /
&DEVC ID='TC-L-08', XYZ=2.75,3.60,1.70, QUANTITY='THERMOCOUPLE' /
&DEVC ID='TC-L-09', XYZ=2.75,3.60,1.40, QUANTITY='THERMOCOUPLE' /
&DEVC ID='TC-L-10', XYZ=2.75,3.60,1.10, QUANTITY='THERMOCOUPLE' /
&DEVC ID='TC-L-11', XYZ=2.75,3.60,0.80, QUANTITY='THERMOCOUPLE' /
&DEVC ID='TC-L-12', XYZ=2.75,3.60,0.50, QUANTITY='THERMOCOUPLE' /
&DEVC ID='TC-L-13', XYZ=2.75,3.60,0.20, QUANTITY='THERMOCOUPLE' /

&DEVC ID='TC-R-01', XYZ=8.25,3.60,3.75, QUANTITY='THERMOCOUPLE' /
&DEVC ID='TC-R-02', XYZ=8.25,3.60,3.50, QUANTITY='THERMOCOUPLE' /
&DEVC ID='TC-R-03', XYZ=8.25,3.60,3.20, QUANTITY='THERMOCOUPLE' /
&DEVC ID='TC-R-04', XYZ=8.25,3.60,2.90, QUANTITY='THERMOCOUPLE' /
&DEVC ID='TC-R-05', XYZ=8.25,3.60,2.60, QUANTITY='THERMOCOUPLE' /
&DEVC ID='TC-R-06', XYZ=8.25,3.60,2.30, QUANTITY='THERMOCOUPLE' /
&DEVC ID='TC-R-07', XYZ=8.25,3.60,2.00, QUANTITY='THERMOCOUPLE' /
&DEVC ID='TC-R-08', XYZ=8.25,3.60,1.70, QUANTITY='THERMOCOUPLE' /
&DEVC ID='TC-R-09', XYZ=8.25,3.60,1.40, QUANTITY='THERMOCOUPLE' /
&DEVC ID='TC-R-10', XYZ=8.25,3.60,1.10, QUANTITY='THERMOCOUPLE' /
&DEVC ID='TC-R-11', XYZ=8.25,3.60,0.80, QUANTITY='THERMOCOUPLE' /
&DEVC ID='TC-R-12', XYZ=8.25,3.60,0.50, QUANTITY='THERMOCOUPLE' /
&DEVC ID='TC-R-13', XYZ=8.25,3.60,0.20, QUANTITY='THERMOCOUPLE' /

&DEVC XB=0.0,2.5,0.0,3.5,2.0,2.1, QUANTITY='TEMPERATURE', ID='T_max_7',  STATISTICS='MAX' /
&DEVC XB=0.0,2.5,0.0,3.5,2.6,2.7, QUANTITY='TEMPERATURE', ID='T_max_9',  STATISTICS='MAX' /
&DEVC XB=0.0,2.5,0.0,3.5,3.2,3.3, QUANTITY='TEMPERATURE', ID='T_max_11', STATISTICS='MAX' /

&DUMP DT_DEVC=15. /

&SLCF PBY=0.05, QUANTITY='TEMPERATURE', CELL_CENTERED=.TRUE. /
&SLCF PBY=3.60, QUANTITY='TEMPERATURE', VECTOR=.TRUE. /
&SLCF PBZ=2.10, QUANTITY='TEMPERATURE', CELL_CENTERED=.TRUE. /
&SLCF PBZ=2.70, QUANTITY='TEMPERATURE', CELL_CENTERED=.TRUE. /
&SLCF PBZ=3.30, QUANTITY='TEMPERATURE', CELL_CENTERED=.TRUE. /

&TAIL/

