/PREP7
N,     1,   0.500000000000,       0.308000000000,        0.00000000000,    
N,     2,   0.350000000000,       0.308000000000,        0.00000000000,    
N,     3,   0.200000000000,       0.308000000000,        0.00000000000,    
N,     4,   0.350000000000,       0.500000000000,        0.00000000000,    
N,     5,   0.200000000000,       0.692000000000,        0.00000000000,    
N,     6,   0.350000000000,       0.692000000000,        0.00000000000,    
N,     7,   0.500000000000,       0.692000000000,        0.00000000000,    
N,     8,   0.500000000000,       0.308000000000,       0.250000000000,    
N,     9,   0.200000000000,       0.308000000000,       0.250000000000,    
N,    10,   0.350000000000,       0.308000000000,       0.250000000000,    
N,    11,   0.350000000000,       0.500000000000,       0.250000000000,    
N,    12,   0.350000000000,       0.692000000000,       0.250000000000,    
N,    13,   0.200000000000,       0.692000000000,       0.250000000000,    
N,    14,   0.500000000000,       0.692000000000,       0.250000000000,    
N,    15,   0.500000000000,       0.308000000000,       0.500000000000,    
N,    16,   0.200000000000,       0.308000000000,       0.500000000000,    
N,    17,   0.350000000000,       0.308000000000,       0.500000000000,    
N,    18,   0.350000000000,       0.692000000000,       0.500000000000,    
N,    19,   0.350000000000,       0.500000000000,       0.500000000000,    
N,    20,   0.200000000000,       0.692000000000,       0.500000000000,    
! ... 71 like lines cut
!*
ET,1,SHELL131
!*  
KEYOPT,1,2,2
KEYOPT,1,3,1
KEYOPT,1,4,4,   
KEYOPT,1,6,0
!*  
TOFFST,273  
MPTEMP,,,,,,,,  
MPTEMP,1,0  
MPDATA,KXX,1,,54
MPTEMP,,,,,,,,  
MPTEMP,1,0  
MPDATA,C,1,,425 
MPTEMP,,,,,,,,  
MPTEMP,1,0  
MPDATA,DENS,1,,7850 
MPTEMP,,,,,,,,  
MPTEMP,1,0  
MPDATA,EMIS,1,,0.8  
!
!*  
sect,1,shell,,flanges   
secdata, 0.004,1,0.0,3  
secdata, 0.004,1,0.0,3  
secdata, 0.004,1,0.0,3  
secdata, 0.004,1,0.0,3  
secoffset,MID   
seccontrol,,,, , , ,
sect,2,shell,,web   
secdata, 0.003125,1,0.0,3   
secdata, 0.003125,1,0.0,3   
secdata, 0.003125,1,0.0,3   
secdata, 0.003125,1,0.0,3   
secoffset,MID   
seccontrol,,,, , , ,
!
TYPE,   1   
MAT,       1
REAL,   
ESYS,       0   
SECNUM, 1
TSHAP,LINE  
!*
E,    1,     8,    10,     2
E,    2,    10,     9,     3
E,    4,    11,    12,     6
E,    2,    10,    11,     4
E,   13,    12,     6,     5
E,    6,    12,    14,     7
E,    8,    15,    17,    10
E,   10,    17,    16,     9
E,   11,    19,    18,    12
E,   10,    17,    19,    11
E,   20,    18,    12,    13
E,   12,    18,    21,    14
E,   15,    22,    23,    17
E,   17,    23,    24,    16
E,   19,    25,    27,    18
E,   17,    23,    25,    19
E,   26,    27,    18,    20
E,   18,    27,    28,    21
E,   22,    29,    30,    23
E,   23,    30,    31,    24
! ... 52 like lines cut
!*
EMODIF,3,SEC,2,  
EMODIF,4,SEC,2,  
EMODIF,9,SEC,2,  
EMODIF,10,SEC,2,  
EMODIF,15,SEC,2,  
EMODIF,16,SEC,2,  
EMODIF,21,SEC,2,  
EMODIF,22,SEC,2,  
EMODIF,27,SEC,2,  
EMODIF,28,SEC,2,  
EMODIF,33,SEC,2,  
EMODIF,34,SEC,2,  
EMODIF,39,SEC,2,  
EMODIF,40,SEC,2,  
EMODIF,45,SEC,2,  
EMODIF,46,SEC,2,  
EMODIF,51,SEC,2,  
EMODIF,52,SEC,2,  
EMODIF,57,SEC,2,  
EMODIF,58,SEC,2,  
! ... 4 like lines cut
!*
!*
ANTYPE,4
!*  
TRNOPT,FULL 
LUMPM,0 
!*  
DELTIM,2,0.001,10   
OUTRES,ERASE
OUTRES,ALL,15   
KBC,0   
TIME,3600
!*
TUNIF,20,   
TREF,20,
!*