
 Fire Dynamics Simulator

 Compilation Date : Tue, 15 Jun 2010
 Version          : 5.5.0 Serial

 OpenMP Disabled

 SVN Revision No. : 6333

 Job TITLE        : Analytical solution to the 2d Navier-Stokes equations, SVN $Revision: 2066 $
 Job ID string    : ns2d_32


 Grid Dimensions, Mesh     1

   Cells in the X Direction            32
   Cells in the Y Direction             1
   Cells in the Z Direction            32


 Physical Dimensions, Mesh     1

   Length (m)                        6.283
   Width  (m)                        0.100
   Height (m)                        6.283
   Initial Time Step (s)            0.124


 Miscellaneous Parameters

   Simulation Start Time (s)          0.0
   Simulation End Time (s)            6.3
   Ambient Temperature (C)          20.00


 Species Information

   AIR                           
   Gas Species
   Background Species
   Molecular Weight (g/mol)         24.06
   Initial Mass Fraction            1.000
   Viscosity (kg/m/s)   Ambient: 1.00E-10
                          500 C: 1.00E-10
                         1000 C: 1.00E-10
                         1500 C: 1.00E-10
   Therm. Cond. (W/m/K) Ambient: 1.44E-07
                          500 C: 1.56E-07
                         1000 C: 1.69E-07
                         1500 C: 1.77E-07
   Spec. Heat (J/kg/K)  Ambient: 1.01E+03
                          500 C: 1.09E+03
                         1000 C: 1.19E+03
                         1500 C: 1.24E+03


 Material Information


 Surface Conditions

   0 INERT (DEFAULT)
     Wall or Vent Temperature (C)    20.0

   1 OPEN
     Passive Vent to Atmosphere

   2 MIRROR
     Symmetry Plane

   3 INTERPOLATED

   4 PERIODIC

   5 HVAC


 Device Coordinates

     1 Coords:     3.14     0.00     3.14, Make: null, ID: UVEL, Quantity: U-VELOCITY
     2 Coords:     3.14     0.00     3.14, Make: null, ID: PRES, Quantity: PRESSURE
     3 Coords:     3.14     0.00     3.14, Make: null, ID: VISC, Quantity: VISCOSITY


 PLOT3D Information

   Sampling Interval (s)               1.3

   1 Quantity: TEMPERATURE
   2 Quantity: U-VELOCITY
   3 Quantity: V-VELOCITY
   4 Quantity: W-VELOCITY
   5 Quantity: HRRPUV


 Slice File Information, Mesh     1

   Sampling Interval (s)             0.006

   1 Nodes:   0  32   1   1   0  32, Quantity: VELOCITY
   2 Nodes:   0  32   1   1   0  32, Quantity: U-VELOCITY
   3 Nodes:   0  32   1   1   0  32, Quantity: W-VELOCITY
   4 Nodes:   0  32   1   1   0  32, Quantity: DENSITY
   5 Nodes:   0  32   1   1   0  32, Quantity: H
   6 Nodes:   0  32   1   1   0  32, Quantity: PRESSURE
   7 Nodes:   0  32   1   1   0  32, Quantity: VISCOSITY
   8 Nodes:   0  32   1   1   0  32, Quantity: DIVERGENCE


 Radiation Model Information

   Number of control angles   60
   Time step increment         2
   Angle increment             4
   Phi band   N_theta Solid angle
     1:       60  0.21
   Constant absorption coeff.   0.00
 
 

 Run Time Diagnostics

       Time Step       1   June 15, 2010  12:46:07
       ----------------------------------------------
       CPU/step:     0.022 s, Total CPU:      0.02 s
       Time step:  0.01506 s, Total time:     0.02 s
       Max CFL number:  0.23E+00 at (  9,  1, 32)
       Max divergence:  0.10E-13 at (  8,  1, 28)
       Min divergence: -0.11E-13 at ( 27,  1, 24)
       Poisson Error :  0.11E-12
       Max VN  number:  0.22E-09 at ( 32,  1, 32)
 
       Time Step       2   June 15, 2010  12:46:07
       ----------------------------------------------
       CPU/step:     0.013 s, Total CPU:      0.03 s
       Time step:  0.01476 s, Total time:     0.03 s
       Max CFL number:  0.23E+00 at (  9,  1, 32)
       Max divergence:  0.10E-13 at ( 10,  1, 28)
       Min divergence: -0.11E-13 at ( 27,  1, 24)
       Poisson Error :  0.95E-13
       Max VN  number:  0.22E-09 at ( 32,  1, 32)
 
       Time Step       3   June 15, 2010  12:46:07
       ----------------------------------------------
       CPU/step:     0.014 s, Total CPU:      0.05 s
       Time step:  0.01623 s, Total time:     0.05 s
       Max CFL number:  0.25E+00 at (  9,  1, 32)
       Max divergence:  0.11E-13 at ( 10,  1, 28)
       Min divergence: -0.11E-13 at ( 27,  1, 24)
       Poisson Error :  0.11E-12
       Max VN  number:  0.24E-09 at ( 32,  1, 32)
 
       Time Step       4   June 15, 2010  12:46:07
       ----------------------------------------------
       CPU/step:     0.010 s, Total CPU:      0.06 s
       Time step:  0.01476 s, Total time:     0.06 s
       Max CFL number:  0.23E+00 at (  9,  0, 32)
       Max divergence:  0.11E-13 at ( 23,  1, 14)
       Min divergence: -0.11E-13 at ( 27,  1, 24)
       Poisson Error :  0.11E-12
       Max VN  number:  0.22E-09 at ( 32,  1, 32)
 
       Time Step       5   June 15, 2010  12:46:07
       ----------------------------------------------
       CPU/step:     0.012 s, Total CPU:      0.07 s
       Time step:  0.01623 s, Total time:     0.08 s
       Max CFL number:  0.25E+00 at (  9,  0, 32)
       Max divergence:  0.11E-13 at ( 28,  1, 18)
       Min divergence: -0.11E-13 at ( 24,  1, 10)
       Poisson Error :  0.10E-12
       Max VN  number:  0.24E-09 at ( 32,  1, 32)
 
       Time Step       6   June 15, 2010  12:46:07
       ----------------------------------------------
       CPU/step:     0.009 s, Total CPU:      0.08 s
       Time step:  0.01476 s, Total time:     0.09 s
       Max CFL number:  0.23E+00 at (  9,  0, 32)
       Max divergence:  0.14E-13 at (  9,  1, 31)
       Min divergence: -0.13E-13 at (  8,  1,  1)
       Poisson Error :  0.91E-13
       Max VN  number:  0.22E-09 at ( 32,  1, 32)
 
       Time Step       7   June 15, 2010  12:46:07
       ----------------------------------------------
       CPU/step:     0.015 s, Total CPU:      0.09 s
       Time step:  0.01624 s, Total time:     0.11 s
       Max CFL number:  0.25E+00 at (  1,  1, 25)
       Max divergence:  0.15E-13 at ( 20,  1, 11)
       Min divergence: -0.14E-13 at ( 28,  1, 13)
       Poisson Error :  0.83E-13
       Max VN  number:  0.24E-09 at ( 32,  1, 32)
 
       Time Step       8   June 15, 2010  12:46:07
       ----------------------------------------------
       CPU/step:     0.016 s, Total CPU:      0.11 s
       Time step:  0.01476 s, Total time:     0.12 s
       Max CFL number:  0.23E+00 at (  1,  1, 25)
       Max divergence:  0.17E-13 at ( 20,  1, 11)
       Min divergence: -0.14E-13 at ( 28,  1, 13)
       Poisson Error :  0.11E-12
       Max VN  number:  0.22E-09 at ( 32,  1, 32)
 
       Time Step       9   June 15, 2010  12:46:07
       ----------------------------------------------
       CPU/step:     0.012 s, Total CPU:      0.12 s
       Time step:  0.01624 s, Total time:     0.14 s
       Max CFL number:  0.25E+00 at (  1,  1, 25)
       Max divergence:  0.16E-13 at ( 23,  1, 14)
       Min divergence: -0.18E-13 at ( 28,  1, 13)
       Poisson Error :  0.92E-13
       Max VN  number:  0.24E-09 at ( 32,  1, 32)
 
       Time Step      10   June 15, 2010  12:46:07
       ----------------------------------------------
       CPU/step:     0.011 s, Total CPU:      0.13 s
       Time step:  0.01476 s, Total time:     0.15 s
       Max CFL number:  0.23E+00 at (  1,  1, 25)
       Max divergence:  0.16E-13 at ( 23,  1, 14)
       Min divergence: -0.15E-13 at ( 28,  1, 13)
       Poisson Error :  0.98E-13
       Max VN  number:  0.22E-09 at ( 32,  1, 32)
 
       Time Step      20   June 15, 2010  12:46:07
       ----------------------------------------------
       CPU/step:     0.011 s, Total CPU:      0.25 s
       Time step:  0.01477 s, Total time:     0.31 s
       Max CFL number:  0.22E+00 at (  2,  1, 26)
       Max divergence:  0.23E-13 at (  4,  1, 28)
       Min divergence: -0.21E-13 at ( 28,  1, 13)
       Poisson Error :  0.10E-12
       Max VN  number:  0.22E-09 at ( 32,  1, 32)
 
       Time Step      30   June 15, 2010  12:46:08
       ----------------------------------------------
       CPU/step:     0.012 s, Total CPU:      0.36 s
       Time step:  0.01475 s, Total time:     0.46 s
       Max CFL number:  0.23E+00 at ( 11,  0,  2)
       Max divergence:  0.25E-13 at (  4,  1, 28)
       Min divergence: -0.28E-13 at ( 14,  1, 32)
       Poisson Error :  0.10E-12
       Max VN  number:  0.22E-09 at ( 32,  1, 32)
 
       Time Step      40   June 15, 2010  12:46:08
       ----------------------------------------------
       CPU/step:     0.011 s, Total CPU:      0.48 s
       Time step:  0.01476 s, Total time:     0.62 s
       Max CFL number:  0.23E+00 at ( 12,  1,  3)
       Max divergence:  0.29E-13 at ( 20,  1, 11)
       Min divergence: -0.33E-13 at ( 31,  1, 20)
       Poisson Error :  0.12E-12
       Max VN  number:  0.22E-09 at ( 32,  1, 32)
 
       Time Step      50   June 15, 2010  12:46:09
       ----------------------------------------------
       CPU/step:     0.011 s, Total CPU:      0.59 s
       Time step:  0.01476 s, Total time:     0.77 s
       Max CFL number:  0.22E+00 at (  4,  0, 28)
       Max divergence:  0.40E-13 at ( 23,  1, 16)
       Min divergence: -0.40E-13 at ( 31,  1, 20)
       Poisson Error :  0.12E-12
       Max VN  number:  0.22E-09 at ( 32,  1, 32)
 
       Time Step      60   June 15, 2010  12:46:09
       ----------------------------------------------
       CPU/step:     0.013 s, Total CPU:      0.72 s
       Time step:  0.01475 s, Total time:     0.93 s
       Max CFL number:  0.23E+00 at ( 13,  1,  5)
       Max divergence:  0.42E-13 at ( 14,  1,  8)
       Min divergence: -0.48E-13 at ( 21,  1, 16)
       Poisson Error :  0.10E-12
       Max VN  number:  0.22E-09 at ( 32,  1, 32)
 
       Time Step      70   June 15, 2010  12:46:10
       ----------------------------------------------
       CPU/step:     0.011 s, Total CPU:      0.83 s
       Time step:  0.01476 s, Total time:     1.08 s
       Max CFL number:  0.23E+00 at (  5,  0, 30)
       Max divergence:  0.50E-13 at ( 14,  1,  8)
       Min divergence: -0.49E-13 at ( 22,  1, 16)
       Poisson Error :  0.11E-12
       Max VN  number:  0.22E-09 at ( 32,  1, 32)
 
       Time Step      80   June 15, 2010  12:46:10
       ----------------------------------------------
       CPU/step:     0.014 s, Total CPU:      0.97 s
       Time step:  0.01475 s, Total time:     1.24 s
       Max CFL number:  0.23E+00 at ( 15,  1,  6)
       Max divergence:  0.52E-13 at ( 14,  1,  8)
       Min divergence: -0.53E-13 at ( 31,  1, 20)
       Poisson Error :  0.85E-13
       Max VN  number:  0.22E-09 at ( 32,  1, 32)
 
       Time Step      90   June 15, 2010  12:46:11
       ----------------------------------------------
       CPU/step:     0.012 s, Total CPU:      1.09 s
       Time step:  0.01477 s, Total time:     1.39 s
       Max CFL number:  0.22E+00 at ( 16,  1,  7)
       Max divergence:  0.52E-13 at (  8,  1, 31)
       Min divergence: -0.60E-13 at ( 31,  1, 20)
       Poisson Error :  0.12E-12
       Max VN  number:  0.22E-09 at ( 32,  1, 32)
 
       Time Step     100   June 15, 2010  12:46:12
       ----------------------------------------------
       CPU/step:     0.011 s, Total CPU:      1.20 s
       Time step:  0.01475 s, Total time:     1.55 s
       Max CFL number:  0.23E+00 at ( 16,  0,  8)
       Max divergence:  0.54E-13 at (  8,  1, 31)
       Min divergence: -0.61E-13 at ( 21,  1, 12)
       Poisson Error :  0.12E-12
       Max VN  number:  0.22E-09 at ( 32,  1, 32)
 
       Time Step     200   June 15, 2010  12:46:18
       ----------------------------------------------
       CPU/step:     0.013 s, Total CPU:      2.47 s
       Time step:  0.01476 s, Total time:     3.10 s
       Max CFL number:  0.23E+00 at ( 16,  1,  8)
       Max divergence:  0.77E-13 at ( 14,  1,  8)
       Min divergence: -0.10E-12 at ( 10,  1, 32)
       Poisson Error :  0.90E-13
       Max VN  number:  0.22E-09 at ( 32,  1, 32)
 
       Time Step     300   June 15, 2010  12:46:23
       ----------------------------------------------
       CPU/step:     0.013 s, Total CPU:      3.75 s
       Time step:  0.01477 s, Total time:     4.65 s
       Max CFL number:  0.22E+00 at ( 23,  0, 16)
       Max divergence:  0.10E-12 at ( 22,  1, 28)
       Min divergence: -0.15E-12 at ( 10,  1, 32)
       Poisson Error :  0.10E-12
       Max VN  number:  0.22E-09 at ( 32,  1, 32)
 
       Time Step     400   June 15, 2010  12:46:29
       ----------------------------------------------
       CPU/step:     0.014 s, Total CPU:      5.16 s
       Time step:  0.01475 s, Total time:     6.20 s
       Max CFL number:  0.22E+00 at ( 31,  0, 24)
       Max divergence:  0.14E-12 at ( 10,  1, 19)
       Min divergence: -0.18E-12 at ( 10,  1, 32)
       Poisson Error :  0.11E-12
       Max VN  number:  0.22E-09 at ( 32,  1, 32)
 
       Time Step     406   June 15, 2010  12:46:30
       ----------------------------------------------
       CPU/step:     0.013 s, Total CPU:      5.24 s
       Time step:  0.01475 s, Total time:     6.29 s
       Max CFL number:  0.22E+00 at ( 32,  0, 24)
       Max divergence:  0.14E-12 at ( 10,  1, 19)
       Min divergence: -0.18E-12 at ( 10,  1, 32)
       Poisson Error :  0.10E-12
       Max VN  number:  0.22E-09 at ( 32,  1, 32)
 


 DEVICE Activation Times



 CPU Time Usage, Mesh   1

                 CPU (s)        %  
       ----------------------------
       MAIN         5.88     100.00
       DIVG         0.37       6.38
       MASS         0.29       4.93
       VELO         2.37      40.30
       PRES         0.28       4.83
       WALL         0.15       2.53
       DUMP         1.13      19.20
       PART         0.00       0.00
       RADI         0.39       6.70
       FIRE         0.00       0.00
       COMM         0.24       4.17
       SubTot       5.24      89.03


 Time Stepping Wall Clock Time (s):       22.755
 Total Elapsed Wall Clock Time (s):       23.121

STOP: FDS completed successfully
