
 Fire Dynamics Simulator

 Compilation Date : Tue, 15 Jun 2010

 Version: 5.5.0; MPI Disabled; OpenMP Disabled
 SVN Revision No. : 6333

 Job TITLE        : Analytical solution to the 2d Navier-Stokes equations, SVN $Revision: 2066 $
 Job ID string    : ns2d_32

 Time Step:      1,    Simulation Time:      0.02 s
 Time Step:      2,    Simulation Time:      0.03 s
 Time Step:      3,    Simulation Time:      0.05 s
 Time Step:      4,    Simulation Time:      0.06 s
 Time Step:      5,    Simulation Time:      0.08 s
 Time Step:      6,    Simulation Time:      0.09 s
 Time Step:      7,    Simulation Time:      0.11 s
 Time Step:      8,    Simulation Time:      0.12 s
 Time Step:      9,    Simulation Time:      0.14 s
 Time Step:     10,    Simulation Time:      0.15 s
 Time Step:     20,    Simulation Time:      0.31 s
 Time Step:     30,    Simulation Time:      0.46 s
 Time Step:     40,    Simulation Time:      0.62 s
 Time Step:     50,    Simulation Time:      0.77 s
 Time Step:     60,    Simulation Time:      0.93 s
 Time Step:     70,    Simulation Time:      1.08 s
 Time Step:     80,    Simulation Time:      1.24 s
 Time Step:     90,    Simulation Time:      1.39 s
 Time Step:    100,    Simulation Time:      1.55 s
 Time Step:    200,    Simulation Time:      3.10 s
 Time Step:    300,    Simulation Time:      4.65 s
 Time Step:    400,    Simulation Time:      6.20 s
 Time Step:    406,    Simulation Time:      6.29 s

STOP: FDS completed successfully
