
 Fire Dynamics Simulator

 Compilation Date : Tue, 15 Jun 2010

 Version: 5.5.0; MPI Disabled; OpenMP Disabled
 SVN Revision No. : 6333

 Job TITLE        : Analytical solution to the 2d Navier-Stokes equations, SVN $Revision: 2066 $
 Job ID string    : ns2d_8

 Time Step:      1,    Simulation Time:      0.07 s
 Time Step:      2,    Simulation Time:      0.13 s
 Time Step:      3,    Simulation Time:      0.19 s
 Time Step:      4,    Simulation Time:      0.25 s
 Time Step:      5,    Simulation Time:      0.32 s
 Time Step:      6,    Simulation Time:      0.38 s
 Time Step:      7,    Simulation Time:      0.45 s
 Time Step:      8,    Simulation Time:      0.51 s
 Time Step:      9,    Simulation Time:      0.58 s
 Time Step:     10,    Simulation Time:      0.64 s
 Time Step:     20,    Simulation Time:      1.28 s
 Time Step:     30,    Simulation Time:      1.92 s
 Time Step:     40,    Simulation Time:      2.56 s
 Time Step:     50,    Simulation Time:      3.21 s
 Time Step:     60,    Simulation Time:      3.85 s
 Time Step:     70,    Simulation Time:      4.49 s
 Time Step:     80,    Simulation Time:      5.13 s
 Time Step:     90,    Simulation Time:      5.77 s
 Time Step:     98,    Simulation Time:      6.28 s

STOP: FDS completed successfully
