
 Fire Dynamics Simulator

 Compilation Date : Tue, 15 Jun 2010

 Version: 5.5.0; MPI Disabled; OpenMP Disabled
 SVN Revision No. : 6333

 Job TITLE        : Analytical solution to the 2d Navier-Stokes equations, SVN $Revision: 2066 $
 Job ID string    : ns2d_8_nupt1

 Time Step:      1,    Simulation Time:      0.07 s
 Time Step:      2,    Simulation Time:      0.13 s
 Time Step:      3,    Simulation Time:      0.20 s
 Time Step:      4,    Simulation Time:      0.26 s
 Time Step:      5,    Simulation Time:      0.33 s
 Time Step:      6,    Simulation Time:      0.39 s
 Time Step:      7,    Simulation Time:      0.46 s
 Time Step:      8,    Simulation Time:      0.53 s
 Time Step:      9,    Simulation Time:      0.60 s
 Time Step:     10,    Simulation Time:      0.66 s
 Time Step:     20,    Simulation Time:      1.39 s
 Time Step:     30,    Simulation Time:      2.17 s
 Time Step:     40,    Simulation Time:      3.03 s
 Time Step:     50,    Simulation Time:      3.96 s
 Time Step:     60,    Simulation Time:      4.98 s
 Time Step:     70,    Simulation Time:      6.09 s
 Time Step:     72,    Simulation Time:      6.32 s

STOP: FDS completed successfully
