
 Fire Dynamics Simulator

 Compilation Date : Tue, 15 Jun 2010

 Version: 5.5.0; MPI Disabled; OpenMP Disabled
 SVN Revision No. : 6333

 Job TITLE        : Analytical solution to the 2d Navier-Stokes equations, SVN $Revision: 2066 $
 Job ID string    : ns2d_64_nupt1

 Time Step:      1,    Simulation Time:      0.01 s
 Time Step:      2,    Simulation Time:      0.01 s
 Time Step:      3,    Simulation Time:      0.02 s
 Time Step:      4,    Simulation Time:      0.03 s
 Time Step:      5,    Simulation Time:      0.04 s
 Time Step:      6,    Simulation Time:      0.05 s
 Time Step:      7,    Simulation Time:      0.05 s
 Time Step:      8,    Simulation Time:      0.06 s
 Time Step:      9,    Simulation Time:      0.07 s
 Time Step:     10,    Simulation Time:      0.08 s
 Time Step:     20,    Simulation Time:      0.16 s
 Time Step:     30,    Simulation Time:      0.23 s
 Time Step:     40,    Simulation Time:      0.31 s
 Time Step:     50,    Simulation Time:      0.40 s
 Time Step:     60,    Simulation Time:      0.48 s
 Time Step:     70,    Simulation Time:      0.56 s
 Time Step:     80,    Simulation Time:      0.64 s
 Time Step:     90,    Simulation Time:      0.73 s
 Time Step:    100,    Simulation Time:      0.81 s
 Time Step:    200,    Simulation Time:      1.72 s
 Time Step:    300,    Simulation Time:      2.74 s
 Time Step:    400,    Simulation Time:      3.88 s
 Time Step:    500,    Simulation Time:      5.17 s
 Time Step:    583,    Simulation Time:      6.29 s

STOP: FDS completed successfully
