
 Fire Dynamics Simulator

 Compilation Date : Tue, 15 Jun 2010

 Version: 5.5.0; MPI Disabled; OpenMP Disabled
 SVN Revision No. : 6333

 Job TITLE        : Analytical solution to the 2d Navier-Stokes equations, SVN $Revision: 2066 $
 Job ID string    : ns2d_64

 Time Step:      1,    Simulation Time:      0.01 s
 Time Step:      2,    Simulation Time:      0.02 s
 Time Step:      3,    Simulation Time:      0.02 s
 Time Step:      4,    Simulation Time:      0.03 s
 Time Step:      5,    Simulation Time:      0.04 s
 Time Step:      6,    Simulation Time:      0.05 s
 Time Step:      7,    Simulation Time:      0.05 s
 Time Step:      8,    Simulation Time:      0.06 s
 Time Step:      9,    Simulation Time:      0.07 s
 Time Step:     10,    Simulation Time:      0.08 s
 Time Step:     20,    Simulation Time:      0.15 s
 Time Step:     30,    Simulation Time:      0.23 s
 Time Step:     40,    Simulation Time:      0.31 s
 Time Step:     50,    Simulation Time:      0.39 s
 Time Step:     60,    Simulation Time:      0.46 s
 Time Step:     70,    Simulation Time:      0.54 s
 Time Step:     80,    Simulation Time:      0.62 s
 Time Step:     90,    Simulation Time:      0.70 s
 Time Step:    100,    Simulation Time:      0.77 s
 Time Step:    200,    Simulation Time:      1.55 s
 Time Step:    300,    Simulation Time:      2.32 s
 Time Step:    400,    Simulation Time:      3.09 s
 Time Step:    500,    Simulation Time:      3.87 s
 Time Step:    600,    Simulation Time:      4.64 s
 Time Step:    700,    Simulation Time:      5.41 s
 Time Step:    800,    Simulation Time:      6.19 s
 Time Step:    813,    Simulation Time:      6.29 s

STOP: FDS completed successfully
