
 Fire Dynamics Simulator

 Compilation Date : Tue, 15 Jun 2010
 Version          : 5.5.0 Serial

 OpenMP Disabled

 SVN Revision No. : 6333

 Job TITLE        : Analytical solution to the 2d Navier-Stokes equations, SVN $Revision: 2066 $
 Job ID string    : ns2d_16_nupt1


 Grid Dimensions, Mesh     1

   Cells in the X Direction            16
   Cells in the Y Direction             1
   Cells in the Z Direction            16


 Physical Dimensions, Mesh     1

   Length (m)                        6.283
   Width  (m)                        0.100
   Height (m)                        6.283
   Initial Time Step (s)            0.248


 Miscellaneous Parameters

   Simulation Start Time (s)          0.0
   Simulation End Time (s)            6.3
   Ambient Temperature (C)          20.00


 Species Information

   AIR                           
   Gas Species
   Background Species
   Molecular Weight (g/mol)         24.06
   Initial Mass Fraction            1.000
   Viscosity (kg/m/s)   Ambient: 1.00E-01
                          500 C: 1.00E-01
                         1000 C: 1.00E-01
                         1500 C: 1.00E-01
   Therm. Cond. (W/m/K) Ambient: 1.44E+02
                          500 C: 1.56E+02
                         1000 C: 1.69E+02
                         1500 C: 1.77E+02
   Spec. Heat (J/kg/K)  Ambient: 1.01E+03
                          500 C: 1.09E+03
                         1000 C: 1.19E+03
                         1500 C: 1.24E+03


 Material Information


 Surface Conditions

   0 INERT (DEFAULT)
     Wall or Vent Temperature (C)    20.0

   1 OPEN
     Passive Vent to Atmosphere

   2 MIRROR
     Symmetry Plane

   3 INTERPOLATED

   4 PERIODIC

   5 HVAC


 Device Coordinates

     1 Coords:     3.14     0.00     3.14, Make: null, ID: UVEL, Quantity: U-VELOCITY
     2 Coords:     3.14     0.00     3.14, Make: null, ID: PRES, Quantity: PRESSURE
     3 Coords:     3.14     0.00     3.14, Make: null, ID: VISC, Quantity: VISCOSITY


 PLOT3D Information

   Sampling Interval (s)               1.3

   1 Quantity: TEMPERATURE
   2 Quantity: U-VELOCITY
   3 Quantity: V-VELOCITY
   4 Quantity: W-VELOCITY
   5 Quantity: HRRPUV


 Slice File Information, Mesh     1

   Sampling Interval (s)             0.006

   1 Nodes:   0  16   1   1   0  16, Quantity: VELOCITY
   2 Nodes:   0  16   1   1   0  16, Quantity: U-VELOCITY
   3 Nodes:   0  16   1   1   0  16, Quantity: W-VELOCITY
   4 Nodes:   0  16   1   1   0  16, Quantity: DENSITY
   5 Nodes:   0  16   1   1   0  16, Quantity: H
   6 Nodes:   0  16   1   1   0  16, Quantity: PRESSURE
   7 Nodes:   0  16   1   1   0  16, Quantity: VISCOSITY
   8 Nodes:   0  16   1   1   0  16, Quantity: DIVERGENCE


 Radiation Model Information

   Number of control angles   60
   Time step increment         2
   Angle increment             4
   Phi band   N_theta Solid angle
     1:       60  0.21
   Constant absorption coeff.   0.00
 
 

 Run Time Diagnostics

       Time Step       1   June 15, 2010  12:46:07
       ----------------------------------------------
       CPU/step:     0.010 s, Total CPU:      0.01 s
       Time step:  0.03274 s, Total time:     0.03 s
       Max CFL number:  0.25E+00 at (  5,  1, 16)
       Max divergence:  0.44E-14 at ( 12,  1, 13)
       Min divergence: -0.44E-14 at ( 13,  1, 12)
       Poisson Error :  0.23E-13
       Max VN  number:  0.12E+00 at ( 16,  1, 16)
 
       Time Step       2   June 15, 2010  12:46:07
       ----------------------------------------------
       CPU/step:     0.002 s, Total CPU:      0.01 s
       Time step:  0.02990 s, Total time:     0.06 s
       Max CFL number:  0.23E+00 at (  5,  0, 16)
       Max divergence:  0.38E-14 at ( 12,  1, 13)
       Min divergence: -0.49E-14 at ( 13,  1, 12)
       Poisson Error :  0.20E-13
       Max VN  number:  0.11E+00 at ( 16,  1, 16)
 
       Time Step       3   June 15, 2010  12:46:07
       ----------------------------------------------
       CPU/step:     0.003 s, Total CPU:      0.01 s
       Time step:  0.03289 s, Total time:     0.10 s
       Max CFL number:  0.25E+00 at (  5,  0, 16)
       Max divergence:  0.42E-14 at ( 12,  1, 13)
       Min divergence: -0.53E-14 at ( 13,  1, 12)
       Poisson Error :  0.20E-13
       Max VN  number:  0.12E+00 at ( 16,  1, 16)
 
       Time Step       4   June 15, 2010  12:46:07
       ----------------------------------------------
       CPU/step:     0.003 s, Total CPU:      0.02 s
       Time step:  0.03006 s, Total time:     0.13 s
       Max CFL number:  0.23E+00 at (  5,  0, 16)
       Max divergence:  0.47E-14 at ( 12,  1, 13)
       Min divergence: -0.57E-14 at ( 13,  1, 10)
       Poisson Error :  0.20E-13
       Max VN  number:  0.11E+00 at ( 16,  1, 16)
 
       Time Step       5   June 15, 2010  12:46:07
       ----------------------------------------------
       CPU/step:     0.002 s, Total CPU:      0.02 s
       Time step:  0.03306 s, Total time:     0.16 s
       Max CFL number:  0.25E+00 at (  5,  0, 16)
       Max divergence:  0.49E-14 at ( 12,  1, 13)
       Min divergence: -0.59E-14 at ( 13,  1, 10)
       Poisson Error :  0.23E-13
       Max VN  number:  0.12E+00 at ( 16,  1, 16)
 
       Time Step       6   June 15, 2010  12:46:07
       ----------------------------------------------
       CPU/step:     0.004 s, Total CPU:      0.02 s
       Time step:  0.03037 s, Total time:     0.19 s
       Max CFL number:  0.23E+00 at (  5,  0, 16)
       Max divergence:  0.57E-14 at ( 10,  1,  5)
       Min divergence: -0.57E-14 at ( 13,  1, 10)
       Poisson Error :  0.19E-13
       Max VN  number:  0.11E+00 at ( 16,  1, 16)
 
       Time Step       7   June 15, 2010  12:46:07
       ----------------------------------------------
       CPU/step:     0.003 s, Total CPU:      0.03 s
       Time step:  0.03341 s, Total time:     0.22 s
       Max CFL number:  0.25E+00 at (  5,  0, 16)
       Max divergence:  0.56E-14 at (  1,  1, 12)
       Min divergence: -0.62E-14 at ( 13,  1, 10)
       Poisson Error :  0.28E-13
       Max VN  number:  0.12E+00 at ( 16,  1, 16)
 
       Time Step       8   June 15, 2010  12:46:07
       ----------------------------------------------
       CPU/step:     0.003 s, Total CPU:      0.03 s
       Time step:  0.03068 s, Total time:     0.25 s
       Max CFL number:  0.23E+00 at (  1,  0, 13)
       Max divergence:  0.74E-14 at (  1,  1, 12)
       Min divergence: -0.64E-14 at ( 13,  1, 10)
       Poisson Error :  0.20E-13
       Max VN  number:  0.11E+00 at ( 16,  1, 16)
 
       Time Step       9   June 15, 2010  12:46:07
       ----------------------------------------------
       CPU/step:     0.002 s, Total CPU:      0.03 s
       Time step:  0.03375 s, Total time:     0.29 s
       Max CFL number:  0.25E+00 at (  1,  0, 13)
       Max divergence:  0.68E-14 at (  1,  1, 12)
       Min divergence: -0.68E-14 at ( 11,  1,  9)
       Poisson Error :  0.27E-13
       Max VN  number:  0.13E+00 at ( 16,  1, 16)
 
       Time Step      10   June 15, 2010  12:46:07
       ----------------------------------------------
       CPU/step:     0.003 s, Total CPU:      0.03 s
       Time step:  0.03082 s, Total time:     0.32 s
       Max CFL number:  0.23E+00 at (  1,  0, 13)
       Max divergence:  0.62E-14 at (  1,  1, 12)
       Min divergence: -0.68E-14 at ( 11,  1,  9)
       Poisson Error :  0.21E-13
       Max VN  number:  0.11E+00 at ( 16,  1, 16)
 
       Time Step      20   June 15, 2010  12:46:07
       ----------------------------------------------
       CPU/step:     0.005 s, Total CPU:      0.08 s
       Time step:  0.03228 s, Total time:     0.65 s
       Max CFL number:  0.23E+00 at (  2,  0, 14)
       Max divergence:  0.11E-13 at (  6,  1,  3)
       Min divergence: -0.10E-13 at (  6,  1,  1)
       Poisson Error :  0.25E-13
       Max VN  number:  0.12E+00 at ( 16,  1, 16)
 
       Time Step      30   June 15, 2010  12:46:07
       ----------------------------------------------
       CPU/step:     0.004 s, Total CPU:      0.12 s
       Time step:  0.03358 s, Total time:     0.99 s
       Max CFL number:  0.23E+00 at (  7,  0,  2)
       Max divergence:  0.18E-13 at ( 10,  1,  5)
       Min divergence: -0.11E-13 at (  6,  1, 15)
       Poisson Error :  0.16E-13
       Max VN  number:  0.12E+00 at ( 16,  1, 16)
 
       Time Step      40   June 15, 2010  12:46:08
       ----------------------------------------------
       CPU/step:     0.004 s, Total CPU:      0.17 s
       Time step:  0.03502 s, Total time:     1.35 s
       Max CFL number:  0.23E+00 at (  8,  0,  3)
       Max divergence:  0.19E-13 at ( 10,  1,  5)
       Min divergence: -0.13E-13 at (  6,  1, 15)
       Poisson Error :  0.25E-13
       Max VN  number:  0.13E+00 at ( 16,  1, 16)
 
       Time Step      50   June 15, 2010  12:46:08
       ----------------------------------------------
       CPU/step:     0.005 s, Total CPU:      0.22 s
       Time step:  0.03660 s, Total time:     1.73 s
       Max CFL number:  0.23E+00 at (  9,  0,  4)
       Max divergence:  0.20E-13 at (  8,  1,  4)
       Min divergence: -0.16E-13 at (  6,  1, 15)
       Poisson Error :  0.14E-13
       Max VN  number:  0.14E+00 at ( 16,  1, 16)
 
       Time Step      60   June 15, 2010  12:46:08
       ----------------------------------------------
       CPU/step:     0.004 s, Total CPU:      0.25 s
       Time step:  0.03828 s, Total time:     2.12 s
       Max CFL number:  0.23E+00 at ( 10,  0,  5)
       Max divergence:  0.23E-13 at ( 10,  1,  5)
       Min divergence: -0.16E-13 at (  6,  1, 15)
       Poisson Error :  0.11E-13
       Max VN  number:  0.14E+00 at ( 16,  1, 16)
 
       Time Step      70   June 15, 2010  12:46:09
       ----------------------------------------------
       CPU/step:     0.004 s, Total CPU:      0.29 s
       Time step:  0.04005 s, Total time:     2.54 s
       Max CFL number:  0.23E+00 at ( 11,  0,  6)
       Max divergence:  0.23E-13 at ( 10,  1,  5)
       Min divergence: -0.18E-13 at (  6,  1, 15)
       Poisson Error :  0.15E-13
       Max VN  number:  0.15E+00 at ( 16,  1, 16)
 
       Time Step      80   June 15, 2010  12:46:09
       ----------------------------------------------
       CPU/step:     0.003 s, Total CPU:      0.33 s
       Time step:  0.04190 s, Total time:     2.97 s
       Max CFL number:  0.23E+00 at ( 12,  0,  7)
       Max divergence:  0.25E-13 at (  8,  1,  4)
       Min divergence: -0.18E-13 at (  6,  1, 15)
       Poisson Error :  0.13E-13
       Max VN  number:  0.16E+00 at ( 16,  1, 16)
 
       Time Step      90   June 15, 2010  12:46:09
       ----------------------------------------------
       CPU/step:     0.003 s, Total CPU:      0.36 s
       Time step:  0.04392 s, Total time:     3.42 s
       Max CFL number:  0.23E+00 at ( 13,  0,  8)
       Max divergence:  0.25E-13 at (  8,  1,  4)
       Min divergence: -0.20E-13 at (  8,  1,  5)
       Poisson Error :  0.80E-14
       Max VN  number:  0.16E+00 at ( 16,  1, 16)
 
       Time Step     100   June 15, 2010  12:46:09
       ----------------------------------------------
       CPU/step:     0.003 s, Total CPU:      0.39 s
       Time step:  0.04606 s, Total time:     3.89 s
       Max CFL number:  0.22E+00 at ( 14,  0, 10)
       Max divergence:  0.26E-13 at (  8,  1,  4)
       Min divergence: -0.20E-13 at (  8,  1,  5)
       Poisson Error :  0.90E-14
       Max VN  number:  0.17E+00 at ( 16,  1, 16)
 
       Time Step     145   June 15, 2010  12:46:11
       ----------------------------------------------
       CPU/step:     0.003 s, Total CPU:      0.54 s
       Time step:  0.06149 s, Total time:     6.30 s
       Max CFL number:  0.25E+00 at (  4,  0, 16)
       Max divergence:  0.26E-13 at (  8,  1,  4)
       Min divergence: -0.20E-13 at (  8,  1,  5)
       Poisson Error :  0.67E-14
       Max VN  number:  0.23E+00 at ( 16,  1, 16)
 


 DEVICE Activation Times



 CPU Time Usage, Mesh   1

                 CPU (s)        %  
       ----------------------------
       MAIN         0.71     100.00
       DIVG         0.03       4.66
       MASS         0.03       4.80
       VELO         0.21      29.80
       PRES         0.03       3.95
       WALL         0.02       2.83
       DUMP         0.15      21.61
       PART         0.00       0.00
       RADI         0.03       4.66
       FIRE         0.00       0.00
       COMM         0.03       4.66
       SubTot       0.54      76.98


 Time Stepping Wall Clock Time (s):        4.419
 Total Elapsed Wall Clock Time (s):        4.739

STOP: FDS completed successfully
