
 Fire Dynamics Simulator

 Compilation Date : Tue, 15 Jun 2010

 Version: 5.5.0; MPI Disabled; OpenMP Disabled
 SVN Revision No. : 6333

 Job TITLE        : Analytical solution to the 2d Navier-Stokes equations, SVN $Revision: 2066 $
 Job ID string    : ns2d_16

 Time Step:      1,    Simulation Time:      0.03 s
 Time Step:      2,    Simulation Time:      0.06 s
 Time Step:      3,    Simulation Time:      0.09 s
 Time Step:      4,    Simulation Time:      0.12 s
 Time Step:      5,    Simulation Time:      0.16 s
 Time Step:      6,    Simulation Time:      0.19 s
 Time Step:      7,    Simulation Time:      0.22 s
 Time Step:      8,    Simulation Time:      0.25 s
 Time Step:      9,    Simulation Time:      0.28 s
 Time Step:     10,    Simulation Time:      0.31 s
 Time Step:     20,    Simulation Time:      0.62 s
 Time Step:     30,    Simulation Time:      0.94 s
 Time Step:     40,    Simulation Time:      1.25 s
 Time Step:     50,    Simulation Time:      1.56 s
 Time Step:     60,    Simulation Time:      1.87 s
 Time Step:     70,    Simulation Time:      2.18 s
 Time Step:     80,    Simulation Time:      2.50 s
 Time Step:     90,    Simulation Time:      2.81 s
 Time Step:    100,    Simulation Time:      3.12 s
 Time Step:    200,    Simulation Time:      6.24 s
 Time Step:    202,    Simulation Time:      6.30 s

STOP: FDS completed successfully
