
 Fire Dynamics Simulator

 Compilation Date : Tue, 15 Jun 2010

 Version: 5.5.0; MPI Disabled; OpenMP Disabled
 SVN Revision No. : 6333

 Job TITLE        : Analytical solution to the 2d Navier-Stokes equations, SVN $Revision: 2066 $
 Job ID string    : ns2d_16_nupt1

 Time Step:      1,    Simulation Time:      0.03 s
 Time Step:      2,    Simulation Time:      0.06 s
 Time Step:      3,    Simulation Time:      0.10 s
 Time Step:      4,    Simulation Time:      0.13 s
 Time Step:      5,    Simulation Time:      0.16 s
 Time Step:      6,    Simulation Time:      0.19 s
 Time Step:      7,    Simulation Time:      0.22 s
 Time Step:      8,    Simulation Time:      0.25 s
 Time Step:      9,    Simulation Time:      0.29 s
 Time Step:     10,    Simulation Time:      0.32 s
 Time Step:     20,    Simulation Time:      0.65 s
 Time Step:     30,    Simulation Time:      0.99 s
 Time Step:     40,    Simulation Time:      1.35 s
 Time Step:     50,    Simulation Time:      1.73 s
 Time Step:     60,    Simulation Time:      2.12 s
 Time Step:     70,    Simulation Time:      2.54 s
 Time Step:     80,    Simulation Time:      2.97 s
 Time Step:     90,    Simulation Time:      3.42 s
 Time Step:    100,    Simulation Time:      3.89 s
 Time Step:    145,    Simulation Time:      6.30 s

STOP: FDS completed successfully
